Please use mpirun instead of srun to run your MPI job
Running with 30 processor cores
/*---------------------------------------------------------------------------*\
| =========                 |                                                 |
| \\      /  F ield         | OpenFOAM: The Open Source CFD Toolbox           |
|  \\    /   O peration     | Version:  2312                                  |
|   \\  /    A nd           | Website:  www.openfoam.com                      |
|    \\/     M anipulation  |                                                 |
\*---------------------------------------------------------------------------*/
Build  : _1d8f0d55f7-20231221 OPENFOAM=2312 version=v2312
Arch   : "LSB;label=32;scalar=64"
Exec   : blockMesh
Date   : Feb 18 2025
Time   : 22:00:06
Host   : udc-aw34-5c0
PID    : 478982
I/O    : uncollated
Case   : /scratch/ndk9pg/foamCases/hsSphere_rcf
nProcs : 1
trapFpe: Floating point exception trapping enabled (FOAM_SIGFPE).
fileModificationChecking : Monitoring run-time modified files using timeStampMaster (fileModificationSkew 5, maxFileModificationPolls 20)
allowSystemOperations : Allowing user-supplied system call operations

// * * * * * * * * * * * * * * * * * * * * * * * * * * * * * * * * * * * * * //
Create time

Creating block mesh from "system/blockMeshDict"
Creating block edges
No non-planar block faces defined
Creating topology blocks

Creating topology patches - from boundary section

Creating block mesh topology

Check topology

	Basic statistics
		Number of internal faces : 0
		Number of boundary faces : 6
		Number of defined boundary faces : 6
		Number of undefined boundary faces : 0
	Checking patch -> block consistency

Creating block offsets
Creating merge list (topological search)...

Creating polyMesh from blockMesh
Creating patches
Creating cells
Creating points with scale (1 1 1)
    Block 0 cell size :
        i : 0.0496029787234042 .. 0.0496029787234034
        j : 0.0494351000000001 .. 0.0494351000000001
        k : 0.0494350999999998 .. 0.0494350999999998

No patch pairs to merge

Writing polyMesh with 0 cellZones
----------------
Mesh Information
----------------
  boundingBox: (-1 -0.988702 -0.988702) (3.66268 0.988702 0.988702)
  nPoints: 159695
  nCells: 150400
  nFaces: 460320
  nInternalFaces: 442080
----------------
Patches
----------------
  patch 0 (start: 442080 size: 1600) name: inlet1
  patch 1 (start: 443680 size: 1600) name: outlet1
  patch 2 (start: 445280 size: 15040) name: walls

End

/*---------------------------------------------------------------------------*\
| =========                 |                                                 |
| \\      /  F ield         | OpenFOAM: The Open Source CFD Toolbox           |
|  \\    /   O peration     | Version:  2312                                  |
|   \\  /    A nd           | Website:  www.openfoam.com                      |
|    \\/     M anipulation  |                                                 |
\*---------------------------------------------------------------------------*/
Build  : _1d8f0d55f7-20231221 OPENFOAM=2312 version=v2312
Arch   : "LSB;label=32;scalar=64"
Exec   : decomposePar
Date   : Feb 18 2025
Time   : 22:00:07
Host   : udc-aw34-5c0
PID    : 478984
I/O    : uncollated
Case   : /scratch/ndk9pg/foamCases/hsSphere_rcf
nProcs : 1
trapFpe: Floating point exception trapping enabled (FOAM_SIGFPE).
fileModificationChecking : Monitoring run-time modified files using timeStampMaster (fileModificationSkew 5, maxFileModificationPolls 20)
allowSystemOperations : Allowing user-supplied system call operations

// * * * * * * * * * * * * * * * * * * * * * * * * * * * * * * * * * * * * * //
Create time



Decomposing mesh

Create mesh

Calculating distribution of cells
Decomposition method scotch [30] (region region0)

Finished decomposition in 2.8 s

Calculating original mesh data

Distributing cells to processors

Distributing faces to processors

Distributing points to processors

Constructing processor meshes

Processor 0
    Number of cells = 4964
    Number of points = 5972
    Number of faces shared with processor 2 = 363
    Number of faces shared with processor 4 = 325
    Number of faces shared with processor 7 = 112
    Number of faces shared with processor 8 = 144
    Number of faces shared with processor 20 = 231
    Number of faces shared with processor 25 = 54
    Number of processor patches = 6
    Number of processor faces = 1229
    Number of boundary faces = 671

Processor 1
    Number of cells = 5022
    Number of points = 5997
    Number of faces shared with processor 2 = 371
    Number of faces shared with processor 6 = 309
    Number of faces shared with processor 9 = 237
    Number of faces shared with processor 18 = 224
    Number of processor patches = 4
    Number of processor faces = 1141
    Number of boundary faces = 699

Processor 2
    Number of cells = 5063
    Number of points = 6057
    Number of faces shared with processor 0 = 363
    Number of faces shared with processor 1 = 371
    Number of faces shared with processor 4 = 181
    Number of faces shared with processor 6 = 135
    Number of faces shared with processor 7 = 23
    Number of faces shared with processor 8 = 104
    Number of faces shared with processor 9 = 126
    Number of faces shared with processor 18 = 119
    Number of faces shared with processor 20 = 138
    Number of processor patches = 9
    Number of processor faces = 1560
    Number of boundary faces = 318

Processor 3
    Number of cells = 4967
    Number of points = 6050
    Number of faces shared with processor 4 = 397
    Number of faces shared with processor 5 = 257
    Number of faces shared with processor 11 = 65
    Number of faces shared with processor 13 = 74
    Number of faces shared with processor 14 = 140
    Number of faces shared with processor 22 = 41
    Number of faces shared with processor 25 = 297
    Number of processor patches = 7
    Number of processor faces = 1271
    Number of boundary faces = 773

Processor 4
    Number of cells = 5039
    Number of points = 6141
    Number of faces shared with processor 0 = 325
    Number of faces shared with processor 2 = 181
    Number of faces shared with processor 3 = 397
    Number of faces shared with processor 5 = 66
    Number of faces shared with processor 6 = 255
    Number of faces shared with processor 7 = 60
    Number of faces shared with processor 9 = 19
    Number of faces shared with processor 11 = 71
    Number of faces shared with processor 13 = 111
    Number of faces shared with processor 14 = 148
    Number of faces shared with processor 20 = 32
    Number of faces shared with processor 25 = 241
    Number of processor patches = 12
    Number of processor faces = 1906
    Number of boundary faces = 174

Processor 5
    Number of cells = 5015
    Number of points = 6024
    Number of faces shared with processor 3 = 257
    Number of faces shared with processor 4 = 66
    Number of faces shared with processor 6 = 393
    Number of faces shared with processor 11 = 246
    Number of faces shared with processor 22 = 198
    Number of faces shared with processor 23 = 71
    Number of faces shared with processor 25 = 27
    Number of processor patches = 7
    Number of processor faces = 1258
    Number of boundary faces = 646

Processor 6
    Number of cells = 4963
    Number of points = 5988
    Number of faces shared with processor 1 = 309
    Number of faces shared with processor 2 = 135
    Number of faces shared with processor 4 = 255
    Number of faces shared with processor 5 = 393
    Number of faces shared with processor 9 = 75
    Number of faces shared with processor 11 = 187
    Number of faces shared with processor 18 = 68
    Number of faces shared with processor 20 = 27
    Number of faces shared with processor 23 = 173
    Number of faces shared with processor 25 = 54
    Number of processor patches = 10
    Number of processor faces = 1676
    Number of boundary faces = 258

Processor 7
    Number of cells = 4969
    Number of points = 6004
    Number of faces shared with processor 0 = 112
    Number of faces shared with processor 2 = 23
    Number of faces shared with processor 4 = 60
    Number of faces shared with processor 8 = 482
    Number of faces shared with processor 9 = 120
    Number of faces shared with processor 10 = 115
    Number of faces shared with processor 13 = 226
    Number of faces shared with processor 14 = 295
    Number of processor patches = 8
    Number of processor faces = 1433
    Number of boundary faces = 521

Processor 8
    Number of cells = 4963
    Number of points = 6026
    Number of faces shared with processor 0 = 144
    Number of faces shared with processor 2 = 104
    Number of faces shared with processor 7 = 482
    Number of faces shared with processor 9 = 169
    Number of faces shared with processor 10 = 171
    Number of processor patches = 5
    Number of processor faces = 1070
    Number of boundary faces = 934

Processor 9
    Number of cells = 5063
    Number of points = 6063
    Number of faces shared with processor 1 = 237
    Number of faces shared with processor 2 = 126
    Number of faces shared with processor 4 = 19
    Number of faces shared with processor 6 = 75
    Number of faces shared with processor 7 = 120
    Number of faces shared with processor 8 = 169
    Number of faces shared with processor 10 = 421
    Number of faces shared with processor 11 = 180
    Number of faces shared with processor 12 = 57
    Number of faces shared with processor 13 = 14
    Number of processor patches = 10
    Number of processor faces = 1418
    Number of boundary faces = 470

Processor 10
    Number of cells = 5063
    Number of points = 6059
    Number of faces shared with processor 7 = 115
    Number of faces shared with processor 8 = 171
    Number of faces shared with processor 9 = 421
    Number of faces shared with processor 12 = 228
    Number of faces shared with processor 13 = 35
    Number of processor patches = 5
    Number of processor faces = 970
    Number of boundary faces = 910

Processor 11
    Number of cells = 4984
    Number of points = 6000
    Number of faces shared with processor 3 = 65
    Number of faces shared with processor 4 = 71
    Number of faces shared with processor 5 = 246
    Number of faces shared with processor 6 = 187
    Number of faces shared with processor 9 = 180
    Number of faces shared with processor 12 = 363
    Number of faces shared with processor 13 = 290
    Number of processor patches = 7
    Number of processor faces = 1402
    Number of boundary faces = 514

Processor 12
    Number of cells = 5061
    Number of points = 6042
    Number of faces shared with processor 9 = 57
    Number of faces shared with processor 10 = 228
    Number of faces shared with processor 11 = 363
    Number of faces shared with processor 13 = 329
    Number of processor patches = 4
    Number of processor faces = 977
    Number of boundary faces = 875

Processor 13
    Number of cells = 5046
    Number of points = 6173
    Number of faces shared with processor 3 = 74
    Number of faces shared with processor 4 = 111
    Number of faces shared with processor 7 = 226
    Number of faces shared with processor 9 = 14
    Number of faces shared with processor 10 = 35
    Number of faces shared with processor 11 = 290
    Number of faces shared with processor 12 = 329
    Number of faces shared with processor 14 = 518
    Number of processor patches = 8
    Number of processor faces = 1597
    Number of boundary faces = 533

Processor 14
    Number of cells = 4964
    Number of points = 6012
    Number of faces shared with processor 3 = 140
    Number of faces shared with processor 4 = 148
    Number of faces shared with processor 7 = 295
    Number of faces shared with processor 13 = 518
    Number of processor patches = 4
    Number of processor faces = 1101
    Number of boundary faces = 875

Processor 15
    Number of cells = 4969
    Number of points = 5972
    Number of faces shared with processor 17 = 365
    Number of faces shared with processor 19 = 281
    Number of faces shared with processor 27 = 355
    Number of processor patches = 3
    Number of processor faces = 1001
    Number of boundary faces = 889

Processor 16
    Number of cells = 4968
    Number of points = 5958
    Number of faces shared with processor 17 = 397
    Number of faces shared with processor 21 = 289
    Number of faces shared with processor 28 = 184
    Number of faces shared with processor 29 = 130
    Number of processor patches = 4
    Number of processor faces = 1000
    Number of boundary faces = 866

Processor 17
    Number of cells = 5000
    Number of points = 5990
    Number of faces shared with processor 15 = 365
    Number of faces shared with processor 16 = 397
    Number of faces shared with processor 19 = 144
    Number of faces shared with processor 21 = 168
    Number of faces shared with processor 27 = 162
    Number of faces shared with processor 28 = 50
    Number of faces shared with processor 29 = 60
    Number of processor patches = 7
    Number of processor faces = 1346
    Number of boundary faces = 522

Processor 18
    Number of cells = 5044
    Number of points = 6052
    Number of faces shared with processor 1 = 224
    Number of faces shared with processor 2 = 119
    Number of faces shared with processor 6 = 68
    Number of faces shared with processor 19 = 373
    Number of faces shared with processor 20 = 286
    Number of faces shared with processor 21 = 52
    Number of faces shared with processor 23 = 228
    Number of processor patches = 7
    Number of processor faces = 1350
    Number of boundary faces = 552

Processor 19
    Number of cells = 5020
    Number of points = 6041
    Number of faces shared with processor 15 = 281
    Number of faces shared with processor 17 = 144
    Number of faces shared with processor 18 = 373
    Number of faces shared with processor 20 = 17
    Number of faces shared with processor 21 = 228
    Number of faces shared with processor 23 = 267
    Number of faces shared with processor 24 = 22
    Number of faces shared with processor 27 = 70
    Number of faces shared with processor 29 = 4
    Number of processor patches = 9
    Number of processor faces = 1406
    Number of boundary faces = 518

Processor 20
    Number of cells = 5031
    Number of points = 6041
    Number of faces shared with processor 0 = 231
    Number of faces shared with processor 2 = 138
    Number of faces shared with processor 4 = 32
    Number of faces shared with processor 6 = 27
    Number of faces shared with processor 18 = 286
    Number of faces shared with processor 19 = 17
    Number of faces shared with processor 21 = 375
    Number of faces shared with processor 23 = 40
    Number of faces shared with processor 24 = 55
    Number of faces shared with processor 25 = 252
    Number of processor patches = 10
    Number of processor faces = 1453
    Number of boundary faces = 453

Processor 21
    Number of cells = 5013
    Number of points = 6018
    Number of faces shared with processor 16 = 289
    Number of faces shared with processor 17 = 168
    Number of faces shared with processor 18 = 52
    Number of faces shared with processor 19 = 228
    Number of faces shared with processor 20 = 375
    Number of faces shared with processor 24 = 193
    Number of faces shared with processor 29 = 19
    Number of processor patches = 7
    Number of processor faces = 1324
    Number of boundary faces = 574

Processor 22
    Number of cells = 5063
    Number of points = 6117
    Number of faces shared with processor 3 = 41
    Number of faces shared with processor 5 = 198
    Number of faces shared with processor 23 = 522
    Number of faces shared with processor 24 = 150
    Number of faces shared with processor 25 = 96
    Number of faces shared with processor 26 = 196
    Number of faces shared with processor 27 = 42
    Number of faces shared with processor 29 = 36
    Number of processor patches = 8
    Number of processor faces = 1281
    Number of boundary faces = 713

Processor 23
    Number of cells = 5003
    Number of points = 6044
    Number of faces shared with processor 5 = 71
    Number of faces shared with processor 6 = 173
    Number of faces shared with processor 18 = 228
    Number of faces shared with processor 19 = 267
    Number of faces shared with processor 20 = 40
    Number of faces shared with processor 22 = 522
    Number of faces shared with processor 24 = 104
    Number of faces shared with processor 25 = 87
    Number of faces shared with processor 27 = 189
    Number of faces shared with processor 29 = 22
    Number of processor patches = 10
    Number of processor faces = 1703
    Number of boundary faces = 263

Processor 24
    Number of cells = 4964
    Number of points = 5962
    Number of faces shared with processor 19 = 22
    Number of faces shared with processor 20 = 55
    Number of faces shared with processor 21 = 193
    Number of faces shared with processor 22 = 150
    Number of faces shared with processor 23 = 104
    Number of faces shared with processor 25 = 430
    Number of faces shared with processor 29 = 430
    Number of processor patches = 7
    Number of processor faces = 1384
    Number of boundary faces = 500

Processor 25
    Number of cells = 5049
    Number of points = 6102
    Number of faces shared with processor 0 = 54
    Number of faces shared with processor 3 = 297
    Number of faces shared with processor 4 = 241
    Number of faces shared with processor 5 = 27
    Number of faces shared with processor 6 = 54
    Number of faces shared with processor 20 = 252
    Number of faces shared with processor 22 = 96
    Number of faces shared with processor 23 = 87
    Number of faces shared with processor 24 = 430
    Number of processor patches = 9
    Number of processor faces = 1538
    Number of boundary faces = 448

Processor 26
    Number of cells = 4976
    Number of points = 6026
    Number of faces shared with processor 22 = 196
    Number of faces shared with processor 27 = 534
    Number of faces shared with processor 28 = 160
    Number of faces shared with processor 29 = 102
    Number of processor patches = 4
    Number of processor faces = 992
    Number of boundary faces = 992

Processor 27
    Number of cells = 5055
    Number of points = 6120
    Number of faces shared with processor 15 = 355
    Number of faces shared with processor 17 = 162
    Number of faces shared with processor 19 = 70
    Number of faces shared with processor 22 = 42
    Number of faces shared with processor 23 = 189
    Number of faces shared with processor 26 = 534
    Number of faces shared with processor 28 = 160
    Number of faces shared with processor 29 = 126
    Number of processor patches = 8
    Number of processor faces = 1638
    Number of boundary faces = 376

Processor 28
    Number of cells = 5042
    Number of points = 6036
    Number of faces shared with processor 16 = 184
    Number of faces shared with processor 17 = 50
    Number of faces shared with processor 26 = 160
    Number of faces shared with processor 27 = 160
    Number of faces shared with processor 29 = 425
    Number of processor patches = 5
    Number of processor faces = 979
    Number of boundary faces = 897

Processor 29
    Number of cells = 5057
    Number of points = 6042
    Number of faces shared with processor 16 = 130
    Number of faces shared with processor 17 = 60
    Number of faces shared with processor 19 = 4
    Number of faces shared with processor 21 = 19
    Number of faces shared with processor 22 = 36
    Number of faces shared with processor 23 = 22
    Number of faces shared with processor 24 = 430
    Number of faces shared with processor 26 = 102
    Number of faces shared with processor 27 = 126
    Number of faces shared with processor 28 = 425
    Number of processor patches = 10
    Number of processor faces = 1354
    Number of boundary faces = 506

Number of processor faces = 19879
Max number of cells = 5063 (0.990691489361708% above average 5013.33333333333)
Max number of processor patches = 12 (68.2242990654206% above average 7.13333333333333)
Max number of faces between processors = 1906 (43.8201116756376% above average 1325.26666666667)

Time = 0

Processor 0: field transfer
Processor 1: field transfer
Processor 2: field transfer
Processor 3: field transfer
Processor 4: field transfer
Processor 5: field transfer
Processor 6: field transfer
Processor 7: field transfer
Processor 8: field transfer
Processor 9: field transfer
Processor 10: field transfer
Processor 11: field transfer
Processor 12: field transfer
Processor 13: field transfer
Processor 14: field transfer
Processor 15: field transfer
Processor 16: field transfer
Processor 17: field transfer
Processor 18: field transfer
Processor 19: field transfer
Processor 20: field transfer
Processor 21: field transfer
Processor 22: field transfer
Processor 23: field transfer
Processor 24: field transfer
Processor 25: field transfer
Processor 26: field transfer
Processor 27: field transfer
Processor 28: field transfer
Processor 29: field transfer

End

/*---------------------------------------------------------------------------*\
| =========                 |                                                 |
| \\      /  F ield         | OpenFOAM: The Open Source CFD Toolbox           |
|  \\    /   O peration     | Version:  2312                                  |
|   \\  /    A nd           | Website:  www.openfoam.com                      |
|    \\/     M anipulation  |                                                 |
\*---------------------------------------------------------------------------*/
Build  : _1d8f0d55f7-20231221 OPENFOAM=2312 version=v2312
Arch   : "LSB;label=32;scalar=64"
Exec   : snappyHexMesh -parallel
Date   : Feb 18 2025
Time   : 22:00:13
Host   : udc-aw34-5c0
PID    : 479028
I/O    : uncollated
Case   : /sfs/weka/scratch/ndk9pg/foamCases/hsSphere_rcf
nProcs : 30
Hosts  :
(
    (udc-aw34-5c0 30)
)
Pstream initialized with:
    floatTransfer      : false
    nProcsSimpleSum    : 0
    nonBlockingExchange: 0 (tuning: 0)
    exchange algorithm : 0
    commsType          : nonBlocking
    polling iterations : 0
trapFpe: Floating point exception trapping enabled (FOAM_SIGFPE).
fileModificationChecking : Monitoring run-time modified files using timeStampMaster (fileModificationSkew 5, maxFileModificationPolls 20)
allowSystemOperations : Allowing user-supplied system call operations

// * * * * * * * * * * * * * * * * * * * * * * * * * * * * * * * * * * * * * //
Create time

Create mesh for time = 0

Read mesh in = 0.02 s

Overall mesh bounding box  : (-1 -0.988702 -0.988702) (3.66268 0.988702 0.988702)
Relative tolerance         : 1e-06
Absolute matching distance : 5.43698794746062e-06

Reading refinement surfaces.
Read refinement surfaces in = 0 s

Reading refinement shells.
Read refinement shells in = 0 s

Setting refinement level of surface to be consistent with shells.
Checked shell refinement in = 0 s

Reading features.
Read features in = 0 s


Determining initial surface intersections
-----------------------------------------

Edge intersection testing:
    Number of edges             : 460320
    Number of edges to retest   : 0
    Number of intersected edges : 0
Edge intersection testing:
    Number of edges             : 460320
    Number of edges to retest   : 460320
    Number of intersected edges : 248
Calculated surface intersections in = 0.03 s

Initial mesh : cells:150400  faces:460320  points:159695  unbalance:0.0100398936170212
Cells per refinement level:
    0	150400
Setting refinement level of surface to be consistent with curvature.
Checked curvature refinement in = 0 s


Adding patches for surface regions
----------------------------------

Patch Type                Region                        
----- ----                ------                        
sphere:

3     wall                sphere                        

Added patches in = 0.01 s

Edge intersection testing:
    Number of edges             : 460320
    Number of edges to retest   : 0
    Number of intersected edges : 248
Decomposition method scotch [30]

Refinement phase
----------------

Found point (0 0.5 0.5) in cell 2517 on processor 16

Surface refinement iteration 0
------------------------------

Marked for refinement due to surface intersection          : 272 cells.
Marked for refinement due to curvature/regions             : 0 cells.
Determined cells to refine in = 0.01 s
Selected for refinement : 272 cells (out of 150400)
Edge intersection testing:
    Number of edges             : 466812
    Number of edges to retest   : 8428
    Number of intersected edges : 984
Refined mesh in = 0.04 s
After refinement surface refinement iteration 0 : cells:152304  faces:466812  points:162391  unbalance:0.121178695241097
Cells per refinement level:
    0	150128
    1	2176
Skipping balancing since max unbalance 0.121178695241097 is less than allowable 0.2

Surface refinement iteration 1
------------------------------

Marked for refinement due to surface intersection          : 1092 cells.
Marked for refinement due to curvature/regions             : 0 cells.
Determined cells to refine in = 0.01 s
Selected for refinement : 1232 cells (out of 152304)
Edge intersection testing:
    Number of edges             : 495708
    Number of edges to retest   : 37632
    Number of intersected edges : 3968
Refined mesh in = 0.05 s
After refinement surface refinement iteration 1 : cells:160928  faces:495708  points:174057  unbalance:0.601337243984888
Cells per refinement level:
    0	149984
    1	2240
    2	8704
Balancing since max unbalance 0.601337243984888 is larger than allowable 0.2
Balanced mesh in = 1.84 s
After balancing surface refinement iteration 1 : cells:160928  faces:495708  points:174057  unbalance:0.00992990654205606
Cells per refinement level:
    0	149984
    1	2240
    2	8704

Surface refinement iteration 2
------------------------------

Marked for refinement due to surface intersection          : 4420 cells.
Marked for refinement due to curvature/regions             : 0 cells.
Determined cells to refine in = 0.01 s
Selected for refinement : 4936 cells (out of 160928)
Edge intersection testing:
    Number of edges             : 611376
    Number of edges to retest   : 151252
    Number of intersected edges : 15912
Refined mesh in = 0.13 s
After refinement surface refinement iteration 2 : cells:195480  faces:611376  points:220638  unbalance:2.15592387968079
Cells per refinement level:
    0	149928
    1	2192
    2	8288
    3	35072
Balancing since max unbalance 2.15592387968079 is larger than allowable 0.2
Balanced mesh in = 2 s
After balancing surface refinement iteration 2 : cells:195480  faces:611376  points:220638  unbalance:0.00997544505831804
Cells per refinement level:
    0	149928
    1	2192
    2	8288
    3	35072

Surface refinement iteration 3
------------------------------

Marked for refinement due to surface intersection          : 144 cells.
Marked for refinement due to curvature/regions             : 0 cells.
Determined cells to refine in = 0.01 s
Selected for refinement : 160 cells (out of 195480)
Edge intersection testing:
    Number of edges             : 614736
    Number of edges to retest   : 15024
    Number of intersected edges : 15948
Refined mesh in = 0.05 s
After refinement surface refinement iteration 3 : cells:196600  faces:614736  points:221758  unbalance:0.039471007121058
Cells per refinement level:
    0	149928
    1	2176
    2	8272
    3	36224
Skipping balancing since max unbalance 0.039471007121058 is less than allowable 0.2

Surface refinement iteration 4
------------------------------

Marked for refinement due to surface intersection          : 0 cells.
Marked for refinement due to curvature/regions             : 0 cells.
Determined cells to refine in = 0.01 s
Selected for refinement : 0 cells (out of 196600)
Stopping refining since too few cells selected.


Removing mesh beyond surface intersections
------------------------------------------

Setting cellZones according to locationsInMesh:
Location : (0 0.5 0.5)
    cellZone : none

For cellZone none found point (0 0.5 0.5) in global region 0 out of 2 regions.
--> FOAM Warning : 
    From void Foam::meshRefinement::nearestFace(const labelUList&, const Foam::bitSet&, Foam::autoPtr<Foam::mapDistribute>&, Foam::labelList&, Foam::label) const
    in file meshRefinement/meshRefinement.C at line 515
    Did not visit some faces, e.g. face 0 at (2.49701 0.0988702000000001 -0.37076325)
Keeping all cells containing inside points
Selected for keeping : 189880 cells.
Edge intersection testing:
    Number of edges             : 596936
    Number of edges to retest   : 12112
    Number of intersected edges : 15948

Shell refinement iteration 0
----------------------------

Marked for refinement due to distance to explicit features : 0 cells.
Marked for refinement due to refinement shells             : 0 cells.
Determined cells to refine in = 0.06 s
Selected for internal refinement : 4199 cells (out of 189880)
Edge intersection testing:
    Number of edges             : 686375
    Number of edges to retest   : 194336
    Number of intersected edges : 15948
Refined mesh in = 0.09 s
After refinement shell refinement iteration 0 : cells:219273  faces:686375  points:247684  unbalance:0.426577827639518
Cells per refinement level:
    0	149668
    1	2671
    2	7542
    3	59392
Balancing since max unbalance 0.426577827639518 is larger than allowable 0.2
Balanced mesh in = 2.33 s
After balancing shell refinement iteration 0 : cells:219273  faces:686375  points:247729  unbalance:0.0100012313417521
Cells per refinement level:
    0	149668
    1	2671
    2	7542
    3	59392

Shell refinement iteration 1
----------------------------

Marked for refinement due to distance to explicit features : 0 cells.
Marked for refinement due to refinement shells             : 0 cells.
Determined cells to refine in = 0.02 s
Selected for internal refinement : 896 cells (out of 219273)
Edge intersection testing:
    Number of edges             : 705599
    Number of edges to retest   : 60677
    Number of intersected edges : 15948
Refined mesh in = 0.06 s
After refinement shell refinement iteration 1 : cells:225545  faces:705599  points:254411  unbalance:0.0593008047174621
Cells per refinement level:
    0	149482
    1	3673
    2	11206
    3	61184
Skipping balancing since max unbalance 0.0593008047174621 is less than allowable 0.2

Shell refinement iteration 2
----------------------------

Marked for refinement due to distance to explicit features : 0 cells.
Marked for refinement due to refinement shells             : 0 cells.
Determined cells to refine in = 0.02 s
Selected for internal refinement : 155 cells (out of 225545)
Edge intersection testing:
    Number of edges             : 708911
    Number of edges to retest   : 12921
    Number of intersected edges : 15948
Refined mesh in = 0.06 s
After refinement shell refinement iteration 2 : cells:226630  faces:708911  points:255553  unbalance:0.0727617702863699
Cells per refinement level:
    0	149377
    1	4463
    2	11606
    3	61184
Skipping balancing since max unbalance 0.0727617702863699 is less than allowable 0.2

Shell refinement iteration 3
----------------------------

Marked for refinement due to distance to explicit features : 0 cells.
Marked for refinement due to refinement shells             : 0 cells.
Determined cells to refine in = 0.02 s
Selected for internal refinement : 10 cells (out of 226630)
Stopping refining since too few cells selected.


Dangling coarse cells refinement iteration 0
--------------------------------------------

Determined cells to refine in = 0 s
Selected for refinement : 0 cells (out of 226630)
Stopping refining since too few cells selected.


Dangling coarse cells refinement iteration 0
--------------------------------------------

Determined cells to refine in = 0.01 s
Selected for refinement : 0 cells (out of 226630)
Stopping refining since too few cells selected.


Refinement transition refinement iteration 0
--------------------------------------------

Determined cells to refine in = 0.02 s
Selected for refinement : 0 cells (out of 226630)
Stopping refining since too few cells selected.


Splitting mesh at surface intersections
---------------------------------------

Introducing baffles for 15948 faces that are intersected by the surface.

Setting cellZones according to locationsInMesh:
Location : (0 0.5 0.5)
    cellZone : none

For cellZone none found point (0 0.5 0.5) in global region 0 out of 2 regions.
Edge intersection testing:
    Number of edges             : 724859
    Number of edges to retest   : 85068
    Number of intersected edges : 31896
Created baffles in = 0.06 s


After introducing baffles : cells:226630  faces:724859  points:255553  unbalance:0.0727617702863699
Cells per refinement level:
    0	149377
    1	4463
    2	11606
    3	61184

Introducing baffles to block off problem cells
----------------------------------------------

markFacesOnProblemCells : marked 23400 additional internal faces to be converted into baffles.
Analyzed problem cells in = 0.05 s


Introducing baffles to delete problem cells.

Edge intersection testing:
    Number of edges             : 748259
    Number of edges to retest   : 81716
    Number of intersected edges : 31896
Created baffles in = 0.05 s


After introducing baffles : cells:226630  faces:748259  points:256388  unbalance:0.0727617702863699
Cells per refinement level:
    0	149377
    1	4463
    2	11606
    3	61184
Setting cellZones according to locationsInMesh:
Location : (0 0.5 0.5)
    cellZone : none

For cellZone none found point (0 0.5 0.5) in global region 0 out of 10541 regions.
Edge intersection testing:
    Number of edges             : 748259
    Number of edges to retest   : 93688
    Number of intersected edges : 31896

Remove unreachable sections of mesh
-----------------------------------

Keeping all cells containing points 1((0 0.5 0.5))
Selected for keeping : 207486 cells.
Edge intersection testing:
    Number of edges             : 650787
    Number of edges to retest   : 0
    Number of intersected edges : 15960
Split mesh in = 0.12 s


After subsetting : cells:207486  faces:650787  points:235991  unbalance:0.145629102686446
Cells per refinement level:
    0	149377
    1	4463
    2	11606
    3	42040

Introducing zones for interfaces
--------------------------------

Setting cellZones according to locationsInMesh:
Location : (0 0.5 0.5)
    cellZone : none

For cellZone none found point (0 0.5 0.5) in global region 0 out of 1 regions.
Setting faceZones according to neighbouring cellZones:

Edge intersection testing:
    Number of edges             : 650787
    Number of edges to retest   : 0
    Number of intersected edges : 15960

Handling cells with snap problems
---------------------------------

Introducing baffles for 15960 faces that are intersected by the surface.

Setting cellZones according to locationsInMesh:
Location : (0 0.5 0.5)
    cellZone : none

For cellZone none found point (0 0.5 0.5) in global region 0 out of 1 regions.
Edge intersection testing:
    Number of edges             : 650787
    Number of edges to retest   : 43640
    Number of intersected edges : 15960
Created baffles in = 0.12 s


After introducing baffles : cells:207486  faces:650787  points:235991  unbalance:0.145629102686446
Cells per refinement level:
    0	149377
    1	4463
    2	11606
    3	42040

Introducing baffles to block off problem cells
----------------------------------------------

markFacesOnProblemCells : marked 0 additional internal faces to be converted into baffles.
Analyzed problem cells in = 0.04 s


Introducing baffles to delete problem cells.

Created baffles in = 0.01 s


After introducing baffles : cells:207486  faces:650787  points:235991  unbalance:0.145629102686446
Cells per refinement level:
    0	149377
    1	4463
    2	11606
    3	42040
Setting cellZones according to locationsInMesh:
Location : (0 0.5 0.5)
    cellZone : none

For cellZone none found point (0 0.5 0.5) in global region 0 out of 1 regions.
Edge intersection testing:
    Number of edges             : 650787
    Number of edges to retest   : 43640
    Number of intersected edges : 15960

Remove unreachable sections of mesh
-----------------------------------

Split mesh in = 0.04 s


After subsetting : cells:207486  faces:650787  points:235991  unbalance:0.145629102686446
Cells per refinement level:
    0	149377
    1	4463
    2	11606
    3	42040

Merge free-standing baffles
---------------------------

freeStandingBaffles : detected 12 free-standing baffles out of 12

freeStandingBaffles : detected 12 planar (within 30 degrees) free-standing baffles out of 12

Detected free-standing baffles : 12
Edge intersection testing:
    Number of edges             : 650775
    Number of edges to retest   : 12
    Number of intersected edges : 15948

Introducing baffles to block off problem cells
----------------------------------------------

markFacesOnProblemCells : marked 0 additional internal faces to be converted into baffles.
Analyzed problem cells in = 0.11 s


Introducing baffles to delete problem cells.

Created baffles in = 0 s


After introducing baffles : cells:207486  faces:650775  points:235991  unbalance:0.145629102686446
Cells per refinement level:
    0	149377
    1	4463
    2	11606
    3	42040

Remove unreachable sections of mesh
-----------------------------------

Merged free-standing baffles in = 0.01 s


dupNonManifoldPoints : Found : 0 non-manifold points (out of 262282)
Detected unsplittable baffles : 0

Merge refined boundary faces
----------------------------

Merging 0 sets of faces.

No faces merged ...

Merging all points on surface that
- are used by only two boundary faces and
- make an angle with a cosine of more than 0.707106781186548.

No straight edges simplified and no points removed ...

Doing final balancing
---------------------

Found 0 zoned faces to keep together.
Found 0 separated coupled faces to keep together.
Refined mesh : cells:207486  faces:650775  points:235991  unbalance:0.0100054943466065
Cells per refinement level:
    0	149377
    1	4463
    2	11606
    3	42040
Writing mesh to time 1e-07
Wrote mesh in = 0.01 s.
Mesh refined in = 9.58 s.

Morphing phase
--------------

Duplicating 0 points on faceZones of type boundary
Snapping to features in 15 iterations ...
Constructing mesh displacer ...
Using mesh parameters 
{
    maxNonOrtho     65;
    maxBoundarySkewness 20;
    maxInternalSkewness 4;
    maxConcave      80;
    minVol          1e-13;
    minTetQuality   1e-15;
    minArea         -1;
    minTwist        0.02;
    minDeterminant  0.001;
    minFaceWeight   0.02;
    minVolRatio     0.01;
    minTriangleTwist -1;
    minEdgeLength   -1;
    nSmoothScale    4;
    errorReduction  0.75;
}


Checking initial mesh ...
Checking faces in error :
    non-orthogonality > 65  degrees                        : 0
    faces with face pyramid volume < 1e-13                 : 0
    faces with face-decomposition tet quality < 1e-15      : 0
    faces with concavity > 80  degrees                     : 0
    faces with skewness > 4   (internal) or 20  (boundary) : 0
    faces with interpolation weights (0..1)  < 0.02        : 0
    faces with volume ratio of neighbour cells < 0.01      : 0
    faces with face twist < 0.02                           : 0
    faces on cells with determinant < 0.001                : 0
Detected 0 illegal faces (concave, zero area or negative cell pyramid volume)
Checked initial mesh in = 2.17 s


Smoothing patch points ...
Smoothing iteration 0
Found 0 non-manifold point(s).

Scaling iteration 0
Moving mesh using displacement scaling : min:1  max:1
Checking faces in error :
    non-orthogonality > 65  degrees                        : 0
    faces with face pyramid volume < 1e-13                 : 0
    faces with face-decomposition tet quality < 1e-15      : 0
    faces with concavity > 80  degrees                     : 0
    faces with skewness > 4   (internal) or 20  (boundary) : 0
    faces with interpolation weights (0..1)  < 0.02        : 0
    faces with volume ratio of neighbour cells < 0.01      : 0
    faces with face twist < 0.02                           : 0
    faces on cells with determinant < 0.001                : 0
Successfully moved mesh

Smoothing iteration 1
Found 0 non-manifold point(s).

Scaling iteration 0
Moving mesh using displacement scaling : min:1  max:1
Checking faces in error :
    non-orthogonality > 65  degrees                        : 0
    faces with face pyramid volume < 1e-13                 : 0
    faces with face-decomposition tet quality < 1e-15      : 0
    faces with concavity > 80  degrees                     : 0
    faces with skewness > 4   (internal) or 20  (boundary) : 0
    faces with interpolation weights (0..1)  < 0.02        : 0
    faces with volume ratio of neighbour cells < 0.01      : 0
    faces with face twist < 0.02                           : 0
    faces on cells with determinant < 0.001                : 0
Successfully moved mesh

Smoothing iteration 2
Found 0 non-manifold point(s).

Scaling iteration 0
Moving mesh using displacement scaling : min:1  max:1
Checking faces in error :
    non-orthogonality > 65  degrees                        : 0
    faces with face pyramid volume < 1e-13                 : 0
    faces with face-decomposition tet quality < 1e-15      : 0
    faces with concavity > 80  degrees                     : 0
    faces with skewness > 4   (internal) or 20  (boundary) : 0
    faces with interpolation weights (0..1)  < 0.02        : 0
    faces with volume ratio of neighbour cells < 0.01      : 0
    faces with face twist < 0.02                           : 0
    faces on cells with determinant < 0.001                : 0
Successfully moved mesh

Smoothing iteration 3
Found 0 non-manifold point(s).

Scaling iteration 0
Moving mesh using displacement scaling : min:1  max:1
Checking faces in error :
    non-orthogonality > 65  degrees                        : 0
    faces with face pyramid volume < 1e-13                 : 0
    faces with face-decomposition tet quality < 1e-15      : 0
    faces with concavity > 80  degrees                     : 0
    faces with skewness > 4   (internal) or 20  (boundary) : 0
    faces with interpolation weights (0..1)  < 0.02        : 0
    faces with volume ratio of neighbour cells < 0.01      : 0
    faces with face twist < 0.02                           : 0
    faces on cells with determinant < 0.001                : 0
Successfully moved mesh

Smoothing iteration 4
Found 0 non-manifold point(s).

Scaling iteration 0
Moving mesh using displacement scaling : min:1  max:1
Checking faces in error :
    non-orthogonality > 65  degrees                        : 0
    faces with face pyramid volume < 1e-13                 : 0
    faces with face-decomposition tet quality < 1e-15      : 0
    faces with concavity > 80  degrees                     : 0
    faces with skewness > 4   (internal) or 20  (boundary) : 0
    faces with interpolation weights (0..1)  < 0.02        : 0
    faces with volume ratio of neighbour cells < 0.01      : 0
    faces with face twist < 0.02                           : 0
    faces on cells with determinant < 0.001                : 0
Successfully moved mesh

Patch points smoothed in = 0.17 s



Morph iteration 0
-----------------
Calculating patchDisplacement as distance to nearest surface point ...
    non-zone points : attract to nearest of all non-zone surfaces
    zone points     : attract to zone surface only

Wanted displacement : average:0.00112636789482428 min:2.83798535458979e-06 max:0.00290424228791391
Calculated surface displacement in = 0 s


Detecting near surfaces ...
Overriding nearest with intersection of close gaps at 0 out of 16806 points.
Overriding displacement on features :
   implicit features    : false
   explicit features    : true
   multi-patch features : false

Detected 0 baffle edges out of 32733 edges.
Baffle points     : 0 of which attracted to :
    feature point : 0
    feature edge  : 0
    rest          : 0

--> FOAM Warning : 
    From Foam::treeBoundBox::treeBoundBox(const Foam::UList<Foam::Vector<double> >&)
    in file meshes/treeBoundBox/treeBoundBox.C at line 70
    No bounding box for zero-sized pointField
Initially selected 0 mesh points out of 16806 for reverse attraction.
Selected 0 mesh points out of 16806 for reverse attraction.
Stringing feature edges : changed 0 points
Attraction:
    linear   : max:(0.00289778408886376 3.15228377361048e-20 0.000193573348463604) avg:(-1.5459635541892e-05 3.30183030287567e-18 3.39935271688466e-18)
    feature  : max:(0 0 0) avg:(0 0 0)
Feature analysis : total master points :15938 of which attracted to :
    feature point   : 0
    feature edge    : 0
    nearest surface : 0
    rest            : 15938

Smoothing displacement ...
Iteration 0
Iteration 10
Iteration 20
Displacement smoothed in = 0.07 s


Moving mesh ...

Iteration 0
Moving mesh using displacement scaling : min:1  max:1
Checking faces in error :
    non-orthogonality > 65  degrees                        : 0
    faces with face pyramid volume < 1e-13                 : 0
    faces with face-decomposition tet quality < 1e-15      : 0
    faces with concavity > 80  degrees                     : 0
    faces with skewness > 4   (internal) or 20  (boundary) : 0
    faces with interpolation weights (0..1)  < 0.02        : 0
    faces with volume ratio of neighbour cells < 0.01      : 0
    faces with face twist < 0.02                           : 0
    faces on cells with determinant < 0.001                : 0
Successfully moved mesh
Moved mesh in = 0.04 s



Morph iteration 1
-----------------
Calculating patchDisplacement as distance to nearest surface point ...
    non-zone points : attract to nearest of all non-zone surfaces
    zone points     : attract to zone surface only

Wanted displacement : average:0.00105436699768001 min:6.18458717949984e-06 max:0.0027631426593053
Calculated surface displacement in = 0 s


Detecting near surfaces ...
Overriding nearest with intersection of close gaps at 0 out of 16806 points.
Overriding displacement on features :
   implicit features    : false
   explicit features    : true
   multi-patch features : false

Detected 0 baffle edges out of 32733 edges.
Baffle points     : 0 of which attracted to :
    feature point : 0
    feature edge  : 0
    rest          : 0

--> FOAM Warning : 
    From Foam::treeBoundBox::treeBoundBox(const Foam::UList<Foam::Vector<double> >&)
    in file meshes/treeBoundBox/treeBoundBox.C at line 70
    No bounding box for zero-sized pointField
Initially selected 0 mesh points out of 16806 for reverse attraction.
Selected 0 mesh points out of 16806 for reverse attraction.
Stringing feature edges : changed 0 points
Attraction:
    linear   : max:(0.00275699521915349 0.000184213781345531 1.12306262947919e-19) avg:(-1.44303276530928e-05 2.92567242026958e-18 3.59439754490263e-18)
    feature  : max:(0 0 0) avg:(0 0 0)
Feature analysis : total master points :15938 of which attracted to :
    feature point   : 0
    feature edge    : 0
    nearest surface : 0
    rest            : 15938

Smoothing displacement ...
Iteration 0
Iteration 10
Iteration 20
Displacement smoothed in = 0.06 s


Moving mesh ...

Iteration 0
Moving mesh using displacement scaling : min:1  max:1
Checking faces in error :
    non-orthogonality > 65  degrees                        : 0
    faces with face pyramid volume < 1e-13                 : 0
    faces with face-decomposition tet quality < 1e-15      : 0
    faces with concavity > 80  degrees                     : 0
    faces with skewness > 4   (internal) or 20  (boundary) : 0
    faces with interpolation weights (0..1)  < 0.02        : 0
    faces with volume ratio of neighbour cells < 0.01      : 0
    faces with face twist < 0.02                           : 0
    faces on cells with determinant < 0.001                : 0
Successfully moved mesh
Moved mesh in = 0.04 s



Morph iteration 2
-----------------
Calculating patchDisplacement as distance to nearest surface point ...
    non-zone points : attract to nearest of all non-zone surfaces
    zone points     : attract to zone surface only

Wanted displacement : average:0.000920681135148678 min:1.45288961641612e-06 max:0.0024945043533424
Calculated surface displacement in = 0 s


Detecting near surfaces ...
Overriding nearest with intersection of close gaps at 0 out of 16806 points.
Overriding displacement on features :
   implicit features    : false
   explicit features    : true
   multi-patch features : false

Detected 0 baffle edges out of 32733 edges.
Baffle points     : 0 of which attracted to :
    feature point : 0
    feature edge  : 0
    rest          : 0

--> FOAM Warning : 
    From Foam::treeBoundBox::treeBoundBox(const Foam::UList<Foam::Vector<double> >&)
    in file meshes/treeBoundBox/treeBoundBox.C at line 70
    No bounding box for zero-sized pointField
Initially selected 0 mesh points out of 16806 for reverse attraction.
Selected 0 mesh points out of 16806 for reverse attraction.
Stringing feature edges : changed 0 points
Attraction:
    linear   : max:(-0.00139897799832364 0.00150165202677771 -0.00141790469338561) avg:(-1.25081107497696e-05 2.88387709998002e-18 3.00926306084871e-18)
    feature  : max:(0 0 0) avg:(0 0 0)
Feature analysis : total master points :15938 of which attracted to :
    feature point   : 0
    feature edge    : 0
    nearest surface : 0
    rest            : 15938

Smoothing displacement ...
Iteration 0
Iteration 10
Iteration 20
Displacement smoothed in = 0.06 s


Moving mesh ...

Iteration 0
Moving mesh using displacement scaling : min:1  max:1
Checking faces in error :
    non-orthogonality > 65  degrees                        : 0
    faces with face pyramid volume < 1e-13                 : 0
    faces with face-decomposition tet quality < 1e-15      : 0
    faces with concavity > 80  degrees                     : 0
    faces with skewness > 4   (internal) or 20  (boundary) : 0
    faces with interpolation weights (0..1)  < 0.02        : 0
    faces with volume ratio of neighbour cells < 0.01      : 0
    faces with face twist < 0.02                           : 0
    faces on cells with determinant < 0.001                : 0
Successfully moved mesh
Moved mesh in = 0.03 s



Morph iteration 3
-----------------
Calculating patchDisplacement as distance to nearest surface point ...
    non-zone points : attract to nearest of all non-zone surfaces
    zone points     : attract to zone surface only

Wanted displacement : average:0.000748116907739466 min:2.68318140538495e-06 max:0.00219958452919478
Calculated surface displacement in = 0 s


Detecting near surfaces ...
Overriding nearest with intersection of close gaps at 0 out of 16806 points.
Overriding displacement on features :
   implicit features    : false
   explicit features    : true
   multi-patch features : false

Detected 0 baffle edges out of 32733 edges.
Baffle points     : 0 of which attracted to :
    feature point : 0
    feature edge  : 0
    rest          : 0

--> FOAM Warning : 
    From Foam::treeBoundBox::treeBoundBox(const Foam::UList<Foam::Vector<double> >&)
    in file meshes/treeBoundBox/treeBoundBox.C at line 70
    No bounding box for zero-sized pointField
Initially selected 0 mesh points out of 16806 for reverse attraction.
Selected 0 mesh points out of 16806 for reverse attraction.
Stringing feature edges : changed 0 points
Attraction:
    linear   : max:(-0.00123358098322131 -0.00125027138480281 -0.00132411159773299) avg:(-1.00074102353718e-05 2.24301552220668e-18 2.28481084249624e-18)
    feature  : max:(0 0 0) avg:(0 0 0)
Feature analysis : total master points :15938 of which attracted to :
    feature point   : 0
    feature edge    : 0
    nearest surface : 0
    rest            : 15938

Smoothing displacement ...
Iteration 0
Iteration 10
Iteration 20
Displacement smoothed in = 0.06 s


Moving mesh ...

Iteration 0
Moving mesh using displacement scaling : min:1  max:1
Checking faces in error :
    non-orthogonality > 65  degrees                        : 0
    faces with face pyramid volume < 1e-13                 : 0
    faces with face-decomposition tet quality < 1e-15      : 0
    faces with concavity > 80  degrees                     : 0
    faces with skewness > 4   (internal) or 20  (boundary) : 0
    faces with interpolation weights (0..1)  < 0.02        : 0
    faces with volume ratio of neighbour cells < 0.01      : 0
    faces with face twist < 0.02                           : 0
    faces on cells with determinant < 0.001                : 0
Successfully moved mesh
Moved mesh in = 0.02 s



Morph iteration 4
-----------------
Calculating patchDisplacement as distance to nearest surface point ...
    non-zone points : attract to nearest of all non-zone surfaces
    zone points     : attract to zone surface only

Wanted displacement : average:0.000569521597412761 min:4.98336202932236e-07 max:0.00184618938783737
Calculated surface displacement in = 0.01 s


Detecting near surfaces ...
Overriding nearest with intersection of close gaps at 0 out of 16806 points.
Overriding displacement on features :
   implicit features    : false
   explicit features    : true
   multi-patch features : false

Detected 0 baffle edges out of 32733 edges.
Baffle points     : 0 of which attracted to :
    feature point : 0
    feature edge  : 0
    rest          : 0

--> FOAM Warning : 
    From Foam::treeBoundBox::treeBoundBox(const Foam::UList<Foam::Vector<double> >&)
    in file meshes/treeBoundBox/treeBoundBox.C at line 70
    No bounding box for zero-sized pointField
Initially selected 0 mesh points out of 16806 for reverse attraction.
Selected 0 mesh points out of 16806 for reverse attraction.
Stringing feature edges : changed 0 points
Attraction:
    linear   : max:(-0.0010353906398376 -0.00104940195925082 0.00111136717902795) avg:(-7.3375531665938e-06 1.74843756544682e-18 1.64394926472291e-18)
    feature  : max:(0 0 0) avg:(0 0 0)
Feature analysis : total master points :15938 of which attracted to :
    feature point   : 0
    feature edge    : 0
    nearest surface : 0
    rest            : 15938

Smoothing displacement ...
Iteration 0
Iteration 10
Iteration 20
Displacement smoothed in = 0.06 s


Moving mesh ...

Iteration 0
Moving mesh using displacement scaling : min:1  max:1
Checking faces in error :
    non-orthogonality > 65  degrees                        : 0
    faces with face pyramid volume < 1e-13                 : 0
    faces with face-decomposition tet quality < 1e-15      : 0
    faces with concavity > 80  degrees                     : 0
    faces with skewness > 4   (internal) or 20  (boundary) : 0
    faces with interpolation weights (0..1)  < 0.02        : 0
    faces with volume ratio of neighbour cells < 0.01      : 0
    faces with face twist < 0.02                           : 0
    faces on cells with determinant < 0.001                : 0
Successfully moved mesh
Moved mesh in = 0.03 s



Morph iteration 5
-----------------
Calculating patchDisplacement as distance to nearest surface point ...
    non-zone points : attract to nearest of all non-zone surfaces
    zone points     : attract to zone surface only

Wanted displacement : average:0.000415489412594998 min:5.69538847569958e-07 max:0.00146920041401234
Calculated surface displacement in = 0 s


Detecting near surfaces ...
Overriding nearest with intersection of close gaps at 0 out of 16806 points.
Overriding displacement on features :
   implicit features    : false
   explicit features    : true
   multi-patch features : false

Detected 0 baffle edges out of 32733 edges.
Baffle points     : 0 of which attracted to :
    feature point : 0
    feature edge  : 0
    rest          : 0

--> FOAM Warning : 
    From Foam::treeBoundBox::treeBoundBox(const Foam::UList<Foam::Vector<double> >&)
    in file meshes/treeBoundBox/treeBoundBox.C at line 70
    No bounding box for zero-sized pointField
Initially selected 0 mesh points out of 16806 for reverse attraction.
Selected 0 mesh points out of 16806 for reverse attraction.
Stringing feature edges : changed 0 points
Attraction:
    linear   : max:(-0.00082396771069701 -0.000835120440803014 0.000884421233132579) avg:(-4.88787443294994e-06 1.1633030813929e-18 1.07274655409885e-18)
    feature  : max:(0 0 0) avg:(0 0 0)
Feature analysis : total master points :15938 of which attracted to :
    feature point   : 0
    feature edge    : 0
    nearest surface : 0
    rest            : 15938

Smoothing displacement ...
Iteration 0
Iteration 10
Iteration 20
Displacement smoothed in = 0.06 s


Moving mesh ...

Iteration 0
Moving mesh using displacement scaling : min:1  max:1
Checking faces in error :
    non-orthogonality > 65  degrees                        : 0
    faces with face pyramid volume < 1e-13                 : 0
    faces with face-decomposition tet quality < 1e-15      : 0
    faces with concavity > 80  degrees                     : 0
    faces with skewness > 4   (internal) or 20  (boundary) : 0
    faces with interpolation weights (0..1)  < 0.02        : 0
    faces with volume ratio of neighbour cells < 0.01      : 0
    faces with face twist < 0.02                           : 0
    faces on cells with determinant < 0.001                : 0
Successfully moved mesh
Moved mesh in = 0.03 s



Morph iteration 6
-----------------
Calculating patchDisplacement as distance to nearest surface point ...
    non-zone points : attract to nearest of all non-zone surfaces
    zone points     : attract to zone surface only

Wanted displacement : average:0.000296103814214471 min:1.00459026722341e-07 max:0.00110226109963146
Calculated surface displacement in = 0 s


Detecting near surfaces ...
Overriding nearest with intersection of close gaps at 0 out of 16806 points.
Overriding displacement on features :
   implicit features    : false
   explicit features    : true
   multi-patch features : false

Detected 0 baffle edges out of 32733 edges.
Baffle points     : 0 of which attracted to :
    feature point : 0
    feature edge  : 0
    rest          : 0

--> FOAM Warning : 
    From Foam::treeBoundBox::treeBoundBox(const Foam::UList<Foam::Vector<double> >&)
    in file meshes/treeBoundBox/treeBoundBox.C at line 70
    No bounding box for zero-sized pointField
Initially selected 0 mesh points out of 16806 for reverse attraction.
Selected 0 mesh points out of 16806 for reverse attraction.
Stringing feature edges : changed 0 points
Attraction:
    linear   : max:(-0.000618179368073582 -0.000626548366002802 0.000663529159651718) avg:(-2.92676482527149e-06 6.06032144198699e-19 6.79173954705438e-19)
    feature  : max:(0 0 0) avg:(0 0 0)
Feature analysis : total master points :15938 of which attracted to :
    feature point   : 0
    feature edge    : 0
    nearest surface : 0
    rest            : 15938

Smoothing displacement ...
Iteration 0
Iteration 10
Iteration 20
Displacement smoothed in = 0.07 s


Moving mesh ...

Iteration 0
Moving mesh using displacement scaling : min:1  max:1
Checking faces in error :
    non-orthogonality > 65  degrees                        : 0
    faces with face pyramid volume < 1e-13                 : 0
    faces with face-decomposition tet quality < 1e-15      : 0
    faces with concavity > 80  degrees                     : 0
    faces with skewness > 4   (internal) or 20  (boundary) : 0
    faces with interpolation weights (0..1)  < 0.02        : 0
    faces with volume ratio of neighbour cells < 0.01      : 0
    faces with face twist < 0.02                           : 0
    faces on cells with determinant < 0.001                : 0
Successfully moved mesh
Moved mesh in = 0.04 s



Morph iteration 7
-----------------
Calculating patchDisplacement as distance to nearest surface point ...
    non-zone points : attract to nearest of all non-zone surfaces
    zone points     : attract to zone surface only

Wanted displacement : average:0.000207478725536545 min:2.17086639066855e-07 max:0.000772740250416907
Calculated surface displacement in = 0 s


Detecting near surfaces ...
Overriding nearest with intersection of close gaps at 0 out of 16806 points.
Overriding displacement on features :
   implicit features    : false
   explicit features    : true
   multi-patch features : false

Detected 0 baffle edges out of 32733 edges.
Baffle points     : 0 of which attracted to :
    feature point : 0
    feature edge  : 0
    rest          : 0

--> FOAM Warning : 
    From Foam::treeBoundBox::treeBoundBox(const Foam::UList<Foam::Vector<double> >&)
    in file meshes/treeBoundBox/treeBoundBox.C at line 70
    No bounding box for zero-sized pointField
Initially selected 0 mesh points out of 16806 for reverse attraction.
Selected 0 mesh points out of 16806 for reverse attraction.
Stringing feature edges : changed 0 points
Attraction:
    linear   : max:(-0.000433375010348222 0.000465165864840647 0.000439242886347765) avg:(-1.55404753794663e-06 3.06499015456813e-19 4.00538486108335e-19)
    feature  : max:(0 0 0) avg:(0 0 0)
Feature analysis : total master points :15938 of which attracted to :
    feature point   : 0
    feature edge    : 0
    nearest surface : 0
    rest            : 15938

Smoothing displacement ...
Iteration 0
Iteration 10
Iteration 20
Displacement smoothed in = 0.07 s


Moving mesh ...

Iteration 0
Moving mesh using displacement scaling : min:1  max:1
Checking faces in error :
    non-orthogonality > 65  degrees                        : 0
    faces with face pyramid volume < 1e-13                 : 0
    faces with face-decomposition tet quality < 1e-15      : 0
    faces with concavity > 80  degrees                     : 0
    faces with skewness > 4   (internal) or 20  (boundary) : 0
    faces with interpolation weights (0..1)  < 0.02        : 0
    faces with volume ratio of neighbour cells < 0.01      : 0
    faces with face twist < 0.02                           : 0
    faces on cells with determinant < 0.001                : 0
Successfully moved mesh
Moved mesh in = 0.03 s



Morph iteration 8
-----------------
Calculating patchDisplacement as distance to nearest surface point ...
    non-zone points : attract to nearest of all non-zone surfaces
    zone points     : attract to zone surface only

Wanted displacement : average:0.000139586813914998 min:8.28819653008411e-08 max:0.000509838614812385
Calculated surface displacement in = 0 s


Detecting near surfaces ...
Overriding nearest with intersection of close gaps at 0 out of 16806 points.
Overriding displacement on features :
   implicit features    : false
   explicit features    : true
   multi-patch features : false

Detected 0 baffle edges out of 32733 edges.
Baffle points     : 0 of which attracted to :
    feature point : 0
    feature edge  : 0
    rest          : 0

--> FOAM Warning : 
    From Foam::treeBoundBox::treeBoundBox(const Foam::UList<Foam::Vector<double> >&)
    in file meshes/treeBoundBox/treeBoundBox.C at line 70
    No bounding box for zero-sized pointField
Initially selected 0 mesh points out of 16806 for reverse attraction.
Selected 0 mesh points out of 16806 for reverse attraction.
Stringing feature edges : changed 0 points
Attraction:
    linear   : max:(-0.000233327345550607 -0.000254492325633321 -0.000375136534032428) avg:(-7.18773835699778e-07 4.78904711651271e-20 1.51508036049675e-19)
    feature  : max:(0 0 0) avg:(0 0 0)
Feature analysis : total master points :15938 of which attracted to :
    feature point   : 0
    feature edge    : 0
    nearest surface : 0
    rest            : 15938

Smoothing displacement ...
Iteration 0
Iteration 10
Iteration 20
Displacement smoothed in = 0.06 s


Moving mesh ...

Iteration 0
Moving mesh using displacement scaling : min:1  max:1
Checking faces in error :
    non-orthogonality > 65  degrees                        : 0
    faces with face pyramid volume < 1e-13                 : 0
    faces with face-decomposition tet quality < 1e-15      : 0
    faces with concavity > 80  degrees                     : 0
    faces with skewness > 4   (internal) or 20  (boundary) : 0
    faces with interpolation weights (0..1)  < 0.02        : 0
    faces with volume ratio of neighbour cells < 0.01      : 0
    faces with face twist < 0.02                           : 0
    faces on cells with determinant < 0.001                : 0
Successfully moved mesh
Moved mesh in = 0.03 s



Morph iteration 9
-----------------
Calculating patchDisplacement as distance to nearest surface point ...
    non-zone points : attract to nearest of all non-zone surfaces
    zone points     : attract to zone surface only

Wanted displacement : average:8.65922801248678e-05 min:1.05275103880504e-07 max:0.0003219583902259
Calculated surface displacement in = 0 s


Detecting near surfaces ...
Overriding nearest with intersection of close gaps at 0 out of 16806 points.
Overriding displacement on features :
   implicit features    : false
   explicit features    : true
   multi-patch features : false

Detected 0 baffle edges out of 32733 edges.
Baffle points     : 0 of which attracted to :
    feature point : 0
    feature edge  : 0
    rest          : 0

--> FOAM Warning : 
    From Foam::treeBoundBox::treeBoundBox(const Foam::UList<Foam::Vector<double> >&)
    in file meshes/treeBoundBox/treeBoundBox.C at line 70
    No bounding box for zero-sized pointField
Initially selected 0 mesh points out of 16806 for reverse attraction.
Selected 0 mesh points out of 16806 for reverse attraction.
Stringing feature edges : changed 0 points
Attraction:
    linear   : max:(0.00013138635816777 0.000259083387963238 0.000138818687523523) avg:(-2.82519329410695e-07 2.4598287462088e-19 1.56297083166187e-19)
    feature  : max:(0 0 0) avg:(0 0 0)
Feature analysis : total master points :15938 of which attracted to :
    feature point   : 0
    feature edge    : 0
    nearest surface : 0
    rest            : 15938

Smoothing displacement ...
Iteration 0
Iteration 10
Iteration 20
Displacement smoothed in = 0.06 s


Moving mesh ...

Iteration 0
Moving mesh using displacement scaling : min:1  max:1
Checking faces in error :
    non-orthogonality > 65  degrees                        : 0
    faces with face pyramid volume < 1e-13                 : 0
    faces with face-decomposition tet quality < 1e-15      : 0
    faces with concavity > 80  degrees                     : 0
    faces with skewness > 4   (internal) or 20  (boundary) : 0
    faces with interpolation weights (0..1)  < 0.02        : 0
    faces with volume ratio of neighbour cells < 0.01      : 0
    faces with face twist < 0.02                           : 0
    faces on cells with determinant < 0.001                : 0
Successfully moved mesh
Moved mesh in = 0.03 s



Morph iteration 10
-----------------
Calculating patchDisplacement as distance to nearest surface point ...
    non-zone points : attract to nearest of all non-zone surfaces
    zone points     : attract to zone surface only

Wanted displacement : average:4.72186991191569e-05 min:1.28414324167894e-07 max:0.000177966840927705
Calculated surface displacement in = 0 s


Detecting near surfaces ...
Overriding nearest with intersection of close gaps at 0 out of 16806 points.
Overriding displacement on features :
   implicit features    : false
   explicit features    : true
   multi-patch features : false

Detected 0 baffle edges out of 32733 edges.
Baffle points     : 0 of which attracted to :
    feature point : 0
    feature edge  : 0
    rest          : 0

--> FOAM Warning : 
    From Foam::treeBoundBox::treeBoundBox(const Foam::UList<Foam::Vector<double> >&)
    in file meshes/treeBoundBox/treeBoundBox.C at line 70
    No bounding box for zero-sized pointField
Initially selected 0 mesh points out of 16806 for reverse attraction.
Selected 0 mesh points out of 16806 for reverse attraction.
Stringing feature edges : changed 0 points
Attraction:
    linear   : max:(7.26244338040416e-05 -0.000143212941209836 7.67329235364933e-05) avg:(-9.09913716723141e-08 -1.76759375391287e-19 8.03253811815086e-20)
    feature  : max:(0 0 0) avg:(0 0 0)
Feature analysis : total master points :15938 of which attracted to :
    feature point   : 0
    feature edge    : 0
    nearest surface : 0
    rest            : 15938

Smoothing displacement ...
Iteration 0
Iteration 10
Iteration 20
Displacement smoothed in = 0.06 s


Moving mesh ...

Iteration 0
Moving mesh using displacement scaling : min:1  max:1
Checking faces in error :
    non-orthogonality > 65  degrees                        : 0
    faces with face pyramid volume < 1e-13                 : 0
    faces with face-decomposition tet quality < 1e-15      : 0
    faces with concavity > 80  degrees                     : 0
    faces with skewness > 4   (internal) or 20  (boundary) : 0
    faces with interpolation weights (0..1)  < 0.02        : 0
    faces with volume ratio of neighbour cells < 0.01      : 0
    faces with face twist < 0.02                           : 0
    faces on cells with determinant < 0.001                : 0
Successfully moved mesh
Moved mesh in = 0.04 s



Morph iteration 11
-----------------
Calculating patchDisplacement as distance to nearest surface point ...
    non-zone points : attract to nearest of all non-zone surfaces
    zone points     : attract to zone surface only

Wanted displacement : average:2.15519792192723e-05 min:1.70421290059779e-08 max:8.22417682472759e-05
Calculated surface displacement in = 0 s


Detecting near surfaces ...
Overriding nearest with intersection of close gaps at 0 out of 16806 points.
Overriding displacement on features :
   implicit features    : false
   explicit features    : true
   multi-patch features : false

Detected 0 baffle edges out of 32733 edges.
Baffle points     : 0 of which attracted to :
    feature point : 0
    feature edge  : 0
    rest          : 0

--> FOAM Warning : 
    From Foam::treeBoundBox::treeBoundBox(const Foam::UList<Foam::Vector<double> >&)
    in file meshes/treeBoundBox/treeBoundBox.C at line 70
    No bounding box for zero-sized pointField
Initially selected 0 mesh points out of 16806 for reverse attraction.
Selected 0 mesh points out of 16806 for reverse attraction.
Stringing feature edges : changed 0 points
Attraction:
    linear   : max:(3.35608985682218e-05 3.54595193606533e-05 6.61815459055137e-05) avg:(-2.26352273150499e-08 3.40675397151927e-20 3.16185951669759e-20)
    feature  : max:(0 0 0) avg:(0 0 0)
Feature analysis : total master points :15938 of which attracted to :
    feature point   : 0
    feature edge    : 0
    nearest surface : 0
    rest            : 15938

Smoothing displacement ...
Iteration 0
Iteration 10
Iteration 20
Displacement smoothed in = 0.06 s


Moving mesh ...

Iteration 0
Moving mesh using displacement scaling : min:1  max:1
Checking faces in error :
    non-orthogonality > 65  degrees                        : 0
    faces with face pyramid volume < 1e-13                 : 0
    faces with face-decomposition tet quality < 1e-15      : 0
    faces with concavity > 80  degrees                     : 0
    faces with skewness > 4   (internal) or 20  (boundary) : 0
    faces with interpolation weights (0..1)  < 0.02        : 0
    faces with volume ratio of neighbour cells < 0.01      : 0
    faces with face twist < 0.02                           : 0
    faces on cells with determinant < 0.001                : 0
Successfully moved mesh
Moved mesh in = 0.04 s



Morph iteration 12
-----------------
Calculating patchDisplacement as distance to nearest surface point ...
    non-zone points : attract to nearest of all non-zone surfaces
    zone points     : attract to zone surface only

Wanted displacement : average:7.68279333336972e-06 min:2.64226168350889e-09 max:2.96758322824138e-05
Calculated surface displacement in = 0 s


Detecting near surfaces ...
Overriding nearest with intersection of close gaps at 0 out of 16806 points.
Overriding displacement on features :
   implicit features    : false
   explicit features    : true
   multi-patch features : false

Detected 0 baffle edges out of 32733 edges.
Baffle points     : 0 of which attracted to :
    feature point : 0
    feature edge  : 0
    rest          : 0

--> FOAM Warning : 
    From Foam::treeBoundBox::treeBoundBox(const Foam::UList<Foam::Vector<double> >&)
    in file meshes/treeBoundBox/treeBoundBox.C at line 70
    No bounding box for zero-sized pointField
Initially selected 0 mesh points out of 16806 for reverse attraction.
Selected 0 mesh points out of 16806 for reverse attraction.
Stringing feature edges : changed 0 points
Attraction:
    linear   : max:(1.21099798855995e-05 -1.27950701697271e-05 2.38807367594907e-05) avg:(-3.89264197106542e-09 -8.02165392015878e-20 -4.27204771188918e-20)
    feature  : max:(0 0 0) avg:(0 0 0)
Feature analysis : total master points :15938 of which attracted to :
    feature point   : 0
    feature edge    : 0
    nearest surface : 0
    rest            : 15938

Smoothing displacement ...
Iteration 0
Iteration 10
Iteration 20
Displacement smoothed in = 0.06 s


Moving mesh ...

Iteration 0
Moving mesh using displacement scaling : min:1  max:1
Checking faces in error :
    non-orthogonality > 65  degrees                        : 0
    faces with face pyramid volume < 1e-13                 : 0
    faces with face-decomposition tet quality < 1e-15      : 0
    faces with concavity > 80  degrees                     : 0
    faces with skewness > 4   (internal) or 20  (boundary) : 0
    faces with interpolation weights (0..1)  < 0.02        : 0
    faces with volume ratio of neighbour cells < 0.01      : 0
    faces with face twist < 0.02                           : 0
    faces on cells with determinant < 0.001                : 0
Successfully moved mesh
Moved mesh in = 0.02 s



Morph iteration 13
-----------------
Calculating patchDisplacement as distance to nearest surface point ...
    non-zone points : attract to nearest of all non-zone surfaces
    zone points     : attract to zone surface only

Wanted displacement : average:1.89525935149197e-06 min:8.31242259613275e-10 max:7.41017802713892e-06
Calculated surface displacement in = 0.01 s


Detecting near surfaces ...
Overriding nearest with intersection of close gaps at 0 out of 16806 points.
Overriding displacement on features :
   implicit features    : false
   explicit features    : true
   multi-patch features : false

Detected 0 baffle edges out of 32733 edges.
Baffle points     : 0 of which attracted to :
    feature point : 0
    feature edge  : 0
    rest          : 0

--> FOAM Warning : 
    From Foam::treeBoundBox::treeBoundBox(const Foam::UList<Foam::Vector<double> >&)
    in file meshes/treeBoundBox/treeBoundBox.C at line 70
    No bounding box for zero-sized pointField
Initially selected 0 mesh points out of 16806 for reverse attraction.
Selected 0 mesh points out of 16806 for reverse attraction.
Stringing feature edges : changed 0 points
Attraction:
    linear   : max:(3.02391142585623e-06 -5.96311948711237e-06 3.19498107426153e-06) avg:(-3.50883887240786e-10 9.88285177680349e-20 2.50880763717313e-20)
    feature  : max:(0 0 0) avg:(0 0 0)
Feature analysis : total master points :15938 of which attracted to :
    feature point   : 0
    feature edge    : 0
    nearest surface : 0
    rest            : 15938

Smoothing displacement ...
Iteration 0
Iteration 10
Iteration 20
Displacement smoothed in = 0.06 s


Moving mesh ...

Iteration 0
Moving mesh using displacement scaling : min:1  max:1
Checking faces in error :
    non-orthogonality > 65  degrees                        : 0
    faces with face pyramid volume < 1e-13                 : 0
    faces with face-decomposition tet quality < 1e-15      : 0
    faces with concavity > 80  degrees                     : 0
    faces with skewness > 4   (internal) or 20  (boundary) : 0
    faces with interpolation weights (0..1)  < 0.02        : 0
    faces with volume ratio of neighbour cells < 0.01      : 0
    faces with face twist < 0.02                           : 0
    faces on cells with determinant < 0.001                : 0
Successfully moved mesh
Moved mesh in = 0.03 s



Morph iteration 14
-----------------
Calculating patchDisplacement as distance to nearest surface point ...
    non-zone points : attract to nearest of all non-zone surfaces
    zone points     : attract to zone surface only

Wanted displacement : average:2.42228946074e-07 min:6.6038529862803e-10 max:9.58178615879251e-07
Calculated surface displacement in = 0 s


Detecting near surfaces ...
Overriding nearest with intersection of close gaps at 0 out of 16806 points.
Overriding displacement on features :
   implicit features    : false
   explicit features    : true
   multi-patch features : false

Detected 0 baffle edges out of 32733 edges.
Baffle points     : 0 of which attracted to :
    feature point : 0
    feature edge  : 0
    rest          : 0

--> FOAM Warning : 
    From Foam::treeBoundBox::treeBoundBox(const Foam::UList<Foam::Vector<double> >&)
    in file meshes/treeBoundBox/treeBoundBox.C at line 70
    No bounding box for zero-sized pointField
Initially selected 0 mesh points out of 16806 for reverse attraction.
Selected 0 mesh points out of 16806 for reverse attraction.
Stringing feature edges : changed 0 points
Attraction:
    linear   : max:(3.91009125508268e-07 4.13129408585733e-07 7.71065636284707e-07) avg:(-5.32768679310346e-13 -7.4828861195511e-20 -1.05250194583359e-19)
    feature  : max:(0 0 0) avg:(0 0 0)
Feature analysis : total master points :15938 of which attracted to :
    feature point   : 0
    feature edge    : 0
    nearest surface : 0
    rest            : 15938

Smoothing displacement ...
Iteration 0
Iteration 10
Iteration 20
Displacement smoothed in = 0.05 s


Moving mesh ...

Iteration 0
Moving mesh using displacement scaling : min:1  max:1
Checking faces in error :
    non-orthogonality > 65  degrees                        : 0
    faces with face pyramid volume < 1e-13                 : 0
    faces with face-decomposition tet quality < 1e-15      : 0
    faces with concavity > 80  degrees                     : 0
    faces with skewness > 4   (internal) or 20  (boundary) : 0
    faces with interpolation weights (0..1)  < 0.02        : 0
    faces with volume ratio of neighbour cells < 0.01      : 0
    faces with face twist < 0.02                           : 0
    faces on cells with determinant < 0.001                : 0
Successfully moved mesh
Moved mesh in = 0.03 s


Repatching faces according to nearest surface ...
Repatched 0 faces in = 0.01 s


Edge intersection testing:
    Number of edges             : 650775
    Number of edges to retest   : 230681
    Number of intersected edges : 15936
Merging 4808 sets of faces.

Edge intersection testing:
    Number of edges             : 643903
    Number of edges to retest   : 19428
    Number of intersected edges : 9064

Undo iteration 0
----------------
Checking faces in error :
    non-orthogonality > 65  degrees                        : 0
    faces with face pyramid volume < 1e-13                 : 0
    faces with face-decomposition tet quality < 1e-15      : 0
    faces with concavity > 80  degrees                     : 0
    faces with skewness > 4   (internal) or 20  (boundary) : 0
    faces with interpolation weights (0..1)  < 0.02        : 0
    faces with volume ratio of neighbour cells < 0.01      : 0
    faces with face twist < 0.02                           : 0
    faces on cells with determinant < 0.001                : 0

Merging all points on surface that
- are used by only two boundary faces and
[...]
    faceProcAddressing
    cellProcAddressing
    boundaryProcAddressing

Processor 6
Read processor mesh: "hsSphere_rcf/processor6"
Writing addressing : "hsSphere_rcf/processor6/1e-07/polyMesh"
    pointProcAddressing
    faceProcAddressing
    cellProcAddressing
    boundaryProcAddressing

Processor 7
Read processor mesh: "hsSphere_rcf/processor7"
Writing addressing : "hsSphere_rcf/processor7/1e-07/polyMesh"
    pointProcAddressing
    faceProcAddressing
    cellProcAddressing
    boundaryProcAddressing

Processor 8
Read processor mesh: "hsSphere_rcf/processor8"
Writing addressing : "hsSphere_rcf/processor8/1e-07/polyMesh"
    pointProcAddressing
    faceProcAddressing
    cellProcAddressing
    boundaryProcAddressing

Processor 9
Read processor mesh: "hsSphere_rcf/processor9"
Writing addressing : "hsSphere_rcf/processor9/1e-07/polyMesh"
    pointProcAddressing
    faceProcAddressing
    cellProcAddressing
    boundaryProcAddressing

Processor 10
Read processor mesh: "hsSphere_rcf/processor10"
Writing addressing : "hsSphere_rcf/processor10/1e-07/polyMesh"
    pointProcAddressing
    faceProcAddressing
    cellProcAddressing
    boundaryProcAddressing

Processor 11
Read processor mesh: "hsSphere_rcf/processor11"
Writing addressing : "hsSphere_rcf/processor11/1e-07/polyMesh"
    pointProcAddressing
    faceProcAddressing
    cellProcAddressing
    boundaryProcAddressing

Processor 12
Read processor mesh: "hsSphere_rcf/processor12"
Writing addressing : "hsSphere_rcf/processor12/1e-07/polyMesh"
    pointProcAddressing
    faceProcAddressing
    cellProcAddressing
    boundaryProcAddressing

Processor 13
Read processor mesh: "hsSphere_rcf/processor13"
Writing addressing : "hsSphere_rcf/processor13/1e-07/polyMesh"
    pointProcAddressing
    faceProcAddressing
    cellProcAddressing
    boundaryProcAddressing

Processor 14
Read processor mesh: "hsSphere_rcf/processor14"
Writing addressing : "hsSphere_rcf/processor14/1e-07/polyMesh"
    pointProcAddressing
    faceProcAddressing
    cellProcAddressing
    boundaryProcAddressing

Processor 15
Read processor mesh: "hsSphere_rcf/processor15"
Writing addressing : "hsSphere_rcf/processor15/1e-07/polyMesh"
    pointProcAddressing
    faceProcAddressing
    cellProcAddressing
    boundaryProcAddressing

Processor 16
Read processor mesh: "hsSphere_rcf/processor16"
Writing addressing : "hsSphere_rcf/processor16/1e-07/polyMesh"
    pointProcAddressing
    faceProcAddressing
    cellProcAddressing
    boundaryProcAddressing

Processor 17
Read processor mesh: "hsSphere_rcf/processor17"
Writing addressing : "hsSphere_rcf/processor17/1e-07/polyMesh"
    pointProcAddressing
    faceProcAddressing
    cellProcAddressing
    boundaryProcAddressing

Processor 18
Read processor mesh: "hsSphere_rcf/processor18"
Writing addressing : "hsSphere_rcf/processor18/1e-07/polyMesh"
    pointProcAddressing
    faceProcAddressing
    cellProcAddressing
    boundaryProcAddressing

Processor 19
Read processor mesh: "hsSphere_rcf/processor19"
Writing addressing : "hsSphere_rcf/processor19/1e-07/polyMesh"
    pointProcAddressing
    faceProcAddressing
    cellProcAddressing
    boundaryProcAddressing

Processor 20
Read processor mesh: "hsSphere_rcf/processor20"
Writing addressing : "hsSphere_rcf/processor20/1e-07/polyMesh"
    pointProcAddressing
    faceProcAddressing
    cellProcAddressing
    boundaryProcAddressing

Processor 21
Read processor mesh: "hsSphere_rcf/processor21"
Writing addressing : "hsSphere_rcf/processor21/1e-07/polyMesh"
    pointProcAddressing
    faceProcAddressing
    cellProcAddressing
    boundaryProcAddressing

Processor 22
Read processor mesh: "hsSphere_rcf/processor22"
Writing addressing : "hsSphere_rcf/processor22/1e-07/polyMesh"
    pointProcAddressing
    faceProcAddressing
    cellProcAddressing
    boundaryProcAddressing

Processor 23
Read processor mesh: "hsSphere_rcf/processor23"
Writing addressing : "hsSphere_rcf/processor23/1e-07/polyMesh"
    pointProcAddressing
    faceProcAddressing
    cellProcAddressing
    boundaryProcAddressing

Processor 24
Read processor mesh: "hsSphere_rcf/processor24"
Writing addressing : "hsSphere_rcf/processor24/1e-07/polyMesh"
    pointProcAddressing
    faceProcAddressing
    cellProcAddressing
    boundaryProcAddressing

Processor 25
Read processor mesh: "hsSphere_rcf/processor25"
Writing addressing : "hsSphere_rcf/processor25/1e-07/polyMesh"
    pointProcAddressing
    faceProcAddressing
    cellProcAddressing
    boundaryProcAddressing

Processor 26
Read processor mesh: "hsSphere_rcf/processor26"
Writing addressing : "hsSphere_rcf/processor26/1e-07/polyMesh"
    pointProcAddressing
    faceProcAddressing
    cellProcAddressing
    boundaryProcAddressing

Processor 27
Read processor mesh: "hsSphere_rcf/processor27"
Writing addressing : "hsSphere_rcf/processor27/1e-07/polyMesh"
    pointProcAddressing
    faceProcAddressing
    cellProcAddressing
    boundaryProcAddressing

Processor 28
Read processor mesh: "hsSphere_rcf/processor28"
Writing addressing : "hsSphere_rcf/processor28/1e-07/polyMesh"
    pointProcAddressing
    faceProcAddressing
    cellProcAddressing
    boundaryProcAddressing

Processor 29
Read processor mesh: "hsSphere_rcf/processor29"
Writing addressing : "hsSphere_rcf/processor29/1e-07/polyMesh"
    pointProcAddressing
    faceProcAddressing
    cellProcAddressing
    boundaryProcAddressing

Time = 2e-07


Writing merged mesh to "2e-07/polyMesh"

Reconstructing addressing from processor meshes to the newly reconstructed mesh

Processor 0
Read processor mesh: "hsSphere_rcf/processor0"
Writing addressing : "hsSphere_rcf/processor0/2e-07/polyMesh"
    pointProcAddressing
    faceProcAddressing
    cellProcAddressing
    boundaryProcAddressing

Processor 1
Read processor mesh: "hsSphere_rcf/processor1"
Writing addressing : "hsSphere_rcf/processor1/2e-07/polyMesh"
    pointProcAddressing
    faceProcAddressing
    cellProcAddressing
    boundaryProcAddressing

Processor 2
Read processor mesh: "hsSphere_rcf/processor2"
Writing addressing : "hsSphere_rcf/processor2/2e-07/polyMesh"
    pointProcAddressing
    faceProcAddressing
    cellProcAddressing
    boundaryProcAddressing

Processor 3
Read processor mesh: "hsSphere_rcf/processor3"
Writing addressing : "hsSphere_rcf/processor3/2e-07/polyMesh"
    pointProcAddressing
    faceProcAddressing
    cellProcAddressing
    boundaryProcAddressing

Processor 4
Read processor mesh: "hsSphere_rcf/processor4"
Writing addressing : "hsSphere_rcf/processor4/2e-07/polyMesh"
    pointProcAddressing
    faceProcAddressing
    cellProcAddressing
    boundaryProcAddressing

Processor 5
Read processor mesh: "hsSphere_rcf/processor5"
Writing addressing : "hsSphere_rcf/processor5/2e-07/polyMesh"
    pointProcAddressing
    faceProcAddressing
    cellProcAddressing
    boundaryProcAddressing

Processor 6
Read processor mesh: "hsSphere_rcf/processor6"
Writing addressing : "hsSphere_rcf/processor6/2e-07/polyMesh"
    pointProcAddressing
    faceProcAddressing
    cellProcAddressing
    boundaryProcAddressing

Processor 7
Read processor mesh: "hsSphere_rcf/processor7"
Writing addressing : "hsSphere_rcf/processor7/2e-07/polyMesh"
    pointProcAddressing
    faceProcAddressing
    cellProcAddressing
    boundaryProcAddressing

Processor 8
Read processor mesh: "hsSphere_rcf/processor8"
Writing addressing : "hsSphere_rcf/processor8/2e-07/polyMesh"
    pointProcAddressing
    faceProcAddressing
    cellProcAddressing
    boundaryProcAddressing

Processor 9
Read processor mesh: "hsSphere_rcf/processor9"
Writing addressing : "hsSphere_rcf/processor9/2e-07/polyMesh"
    pointProcAddressing
    faceProcAddressing
    cellProcAddressing
    boundaryProcAddressing

Processor 10
Read processor mesh: "hsSphere_rcf/processor10"
Writing addressing : "hsSphere_rcf/processor10/2e-07/polyMesh"
    pointProcAddressing
    faceProcAddressing
    cellProcAddressing
    boundaryProcAddressing

Processor 11
Read processor mesh: "hsSphere_rcf/processor11"
Writing addressing : "hsSphere_rcf/processor11/2e-07/polyMesh"
    pointProcAddressing
    faceProcAddressing
    cellProcAddressing
    boundaryProcAddressing

Processor 12
Read processor mesh: "hsSphere_rcf/processor12"
Writing addressing : "hsSphere_rcf/processor12/2e-07/polyMesh"
    pointProcAddressing
    faceProcAddressing
    cellProcAddressing
    boundaryProcAddressing

Processor 13
Read processor mesh: "hsSphere_rcf/processor13"
Writing addressing : "hsSphere_rcf/processor13/2e-07/polyMesh"
    pointProcAddressing
    faceProcAddressing
    cellProcAddressing
    boundaryProcAddressing

Processor 14
Read processor mesh: "hsSphere_rcf/processor14"
Writing addressing : "hsSphere_rcf/processor14/2e-07/polyMesh"
    pointProcAddressing
    faceProcAddressing
    cellProcAddressing
    boundaryProcAddressing

Processor 15
Read processor mesh: "hsSphere_rcf/processor15"
Writing addressing : "hsSphere_rcf/processor15/2e-07/polyMesh"
    pointProcAddressing
    faceProcAddressing
    cellProcAddressing
    boundaryProcAddressing

Processor 16
Read processor mesh: "hsSphere_rcf/processor16"
Writing addressing : "hsSphere_rcf/processor16/2e-07/polyMesh"
    pointProcAddressing
    faceProcAddressing
    cellProcAddressing
    boundaryProcAddressing

Processor 17
Read processor mesh: "hsSphere_rcf/processor17"
Writing addressing : "hsSphere_rcf/processor17/2e-07/polyMesh"
    pointProcAddressing
    faceProcAddressing
    cellProcAddressing
    boundaryProcAddressing

Processor 18
Read processor mesh: "hsSphere_rcf/processor18"
Writing addressing : "hsSphere_rcf/processor18/2e-07/polyMesh"
    pointProcAddressing
    faceProcAddressing
    cellProcAddressing
    boundaryProcAddressing

Processor 19
Read processor mesh: "hsSphere_rcf/processor19"
Writing addressing : "hsSphere_rcf/processor19/2e-07/polyMesh"
    pointProcAddressing
    faceProcAddressing
    cellProcAddressing
    boundaryProcAddressing

Processor 20
Read processor mesh: "hsSphere_rcf/processor20"
Writing addressing : "hsSphere_rcf/processor20/2e-07/polyMesh"
    pointProcAddressing
    faceProcAddressing
    cellProcAddressing
    boundaryProcAddressing

Processor 21
Read processor mesh: "hsSphere_rcf/processor21"
Writing addressing : "hsSphere_rcf/processor21/2e-07/polyMesh"
    pointProcAddressing
    faceProcAddressing
    cellProcAddressing
    boundaryProcAddressing

Processor 22
Read processor mesh: "hsSphere_rcf/processor22"
Writing addressing : "hsSphere_rcf/processor22/2e-07/polyMesh"
    pointProcAddressing
    faceProcAddressing
    cellProcAddressing
    boundaryProcAddressing

Processor 23
Read processor mesh: "hsSphere_rcf/processor23"
Writing addressing : "hsSphere_rcf/processor23/2e-07/polyMesh"
    pointProcAddressing
    faceProcAddressing
    cellProcAddressing
    boundaryProcAddressing

Processor 24
Read processor mesh: "hsSphere_rcf/processor24"
Writing addressing : "hsSphere_rcf/processor24/2e-07/polyMesh"
    pointProcAddressing
    faceProcAddressing
    cellProcAddressing
    boundaryProcAddressing

Processor 25
Read processor mesh: "hsSphere_rcf/processor25"
Writing addressing : "hsSphere_rcf/processor25/2e-07/polyMesh"
    pointProcAddressing
    faceProcAddressing
    cellProcAddressing
    boundaryProcAddressing

Processor 26
Read processor mesh: "hsSphere_rcf/processor26"
Writing addressing : "hsSphere_rcf/processor26/2e-07/polyMesh"
    pointProcAddressing
    faceProcAddressing
    cellProcAddressing
    boundaryProcAddressing

Processor 27
Read processor mesh: "hsSphere_rcf/processor27"
Writing addressing : "hsSphere_rcf/processor27/2e-07/polyMesh"
    pointProcAddressing
    faceProcAddressing
    cellProcAddressing
    boundaryProcAddressing

Processor 28
Read processor mesh: "hsSphere_rcf/processor28"
Writing addressing : "hsSphere_rcf/processor28/2e-07/polyMesh"
    pointProcAddressing
    faceProcAddressing
    cellProcAddressing
    boundaryProcAddressing

Processor 29
Read processor mesh: "hsSphere_rcf/processor29"
Writing addressing : "hsSphere_rcf/processor29/2e-07/polyMesh"
    pointProcAddressing
    faceProcAddressing
    cellProcAddressing
    boundaryProcAddressing

Time = 3e-07


Writing merged mesh to "3e-07/polyMesh"

Reconstructing addressing from processor meshes to the newly reconstructed mesh

Processor 0
Read processor mesh: "hsSphere_rcf/processor0"
Writing addressing : "hsSphere_rcf/processor0/3e-07/polyMesh"
    pointProcAddressing
    faceProcAddressing
    cellProcAddressing
    boundaryProcAddressing

Processor 1
Read processor mesh: "hsSphere_rcf/processor1"
Writing addressing : "hsSphere_rcf/processor1/3e-07/polyMesh"
    pointProcAddressing
    faceProcAddressing
    cellProcAddressing
    boundaryProcAddressing

Processor 2
Read processor mesh: "hsSphere_rcf/processor2"
Writing addressing : "hsSphere_rcf/processor2/3e-07/polyMesh"
    pointProcAddressing
    faceProcAddressing
    cellProcAddressing
    boundaryProcAddressing

Processor 3
Read processor mesh: "hsSphere_rcf/processor3"
Writing addressing : "hsSphere_rcf/processor3/3e-07/polyMesh"
    pointProcAddressing
    faceProcAddressing
    cellProcAddressing
    boundaryProcAddressing

Processor 4
Read processor mesh: "hsSphere_rcf/processor4"
Writing addressing : "hsSphere_rcf/processor4/3e-07/polyMesh"
    pointProcAddressing
    faceProcAddressing
    cellProcAddressing
    boundaryProcAddressing

Processor 5
Read processor mesh: "hsSphere_rcf/processor5"
Writing addressing : "hsSphere_rcf/processor5/3e-07/polyMesh"
    pointProcAddressing
    faceProcAddressing
    cellProcAddressing
    boundaryProcAddressing

Processor 6
Read processor mesh: "hsSphere_rcf/processor6"
Writing addressing : "hsSphere_rcf/processor6/3e-07/polyMesh"
    pointProcAddressing
    faceProcAddressing
    cellProcAddressing
    boundaryProcAddressing

Processor 7
Read processor mesh: "hsSphere_rcf/processor7"
Writing addressing : "hsSphere_rcf/processor7/3e-07/polyMesh"
    pointProcAddressing
    faceProcAddressing
    cellProcAddressing
    boundaryProcAddressing

Processor 8
Read processor mesh: "hsSphere_rcf/processor8"
Writing addressing : "hsSphere_rcf/processor8/3e-07/polyMesh"
    pointProcAddressing
    faceProcAddressing
    cellProcAddressing
    boundaryProcAddressing

Processor 9
Read processor mesh: "hsSphere_rcf/processor9"
Writing addressing : "hsSphere_rcf/processor9/3e-07/polyMesh"
    pointProcAddressing
    faceProcAddressing
    cellProcAddressing
    boundaryProcAddressing

Processor 10
Read processor mesh: "hsSphere_rcf/processor10"
Writing addressing : "hsSphere_rcf/processor10/3e-07/polyMesh"
    pointProcAddressing
    faceProcAddressing
    cellProcAddressing
    boundaryProcAddressing

Processor 11
Read processor mesh: "hsSphere_rcf/processor11"
Writing addressing : "hsSphere_rcf/processor11/3e-07/polyMesh"
    pointProcAddressing
    faceProcAddressing
    cellProcAddressing
    boundaryProcAddressing

Processor 12
Read processor mesh: "hsSphere_rcf/processor12"
Writing addressing : "hsSphere_rcf/processor12/3e-07/polyMesh"
    pointProcAddressing
    faceProcAddressing
    cellProcAddressing
    boundaryProcAddressing

Processor 13
Read processor mesh: "hsSphere_rcf/processor13"
Writing addressing : "hsSphere_rcf/processor13/3e-07/polyMesh"
    pointProcAddressing
    faceProcAddressing
    cellProcAddressing
    boundaryProcAddressing

Processor 14
Read processor mesh: "hsSphere_rcf/processor14"
Writing addressing : "hsSphere_rcf/processor14/3e-07/polyMesh"
    pointProcAddressing
    faceProcAddressing
    cellProcAddressing
    boundaryProcAddressing

Processor 15
Read processor mesh: "hsSphere_rcf/processor15"
Writing addressing : "hsSphere_rcf/processor15/3e-07/polyMesh"
    pointProcAddressing
    faceProcAddressing
    cellProcAddressing
    boundaryProcAddressing

Processor 16
Read processor mesh: "hsSphere_rcf/processor16"
Writing addressing : "hsSphere_rcf/processor16/3e-07/polyMesh"
    pointProcAddressing
    faceProcAddressing
    cellProcAddressing
    boundaryProcAddressing

Processor 17
Read processor mesh: "hsSphere_rcf/processor17"
Writing addressing : "hsSphere_rcf/processor17/3e-07/polyMesh"
    pointProcAddressing
    faceProcAddressing
    cellProcAddressing
    boundaryProcAddressing

Processor 18
Read processor mesh: "hsSphere_rcf/processor18"
Writing addressing : "hsSphere_rcf/processor18/3e-07/polyMesh"
    pointProcAddressing
    faceProcAddressing
    cellProcAddressing
    boundaryProcAddressing

Processor 19
Read processor mesh: "hsSphere_rcf/processor19"
Writing addressing : "hsSphere_rcf/processor19/3e-07/polyMesh"
    pointProcAddressing
    faceProcAddressing
    cellProcAddressing
    boundaryProcAddressing

Processor 20
Read processor mesh: "hsSphere_rcf/processor20"
Writing addressing : "hsSphere_rcf/processor20/3e-07/polyMesh"
    pointProcAddressing
    faceProcAddressing
    cellProcAddressing
    boundaryProcAddressing

Processor 21
Read processor mesh: "hsSphere_rcf/processor21"
Writing addressing : "hsSphere_rcf/processor21/3e-07/polyMesh"
    pointProcAddressing
    faceProcAddressing
    cellProcAddressing
    boundaryProcAddressing

Processor 22
Read processor mesh: "hsSphere_rcf/processor22"
Writing addressing : "hsSphere_rcf/processor22/3e-07/polyMesh"
    pointProcAddressing
    faceProcAddressing
    cellProcAddressing
    boundaryProcAddressing

Processor 23
Read processor mesh: "hsSphere_rcf/processor23"
Writing addressing : "hsSphere_rcf/processor23/3e-07/polyMesh"
    pointProcAddressing
    faceProcAddressing
    cellProcAddressing
    boundaryProcAddressing

Processor 24
Read processor mesh: "hsSphere_rcf/processor24"
Writing addressing : "hsSphere_rcf/processor24/3e-07/polyMesh"
    pointProcAddressing
    faceProcAddressing
    cellProcAddressing
    boundaryProcAddressing

Processor 25
Read processor mesh: "hsSphere_rcf/processor25"
Writing addressing : "hsSphere_rcf/processor25/3e-07/polyMesh"
    pointProcAddressing
    faceProcAddressing
    cellProcAddressing
    boundaryProcAddressing

Processor 26
Read processor mesh: "hsSphere_rcf/processor26"
Writing addressing : "hsSphere_rcf/processor26/3e-07/polyMesh"
    pointProcAddressing
    faceProcAddressing
    cellProcAddressing
    boundaryProcAddressing

Processor 27
Read processor mesh: "hsSphere_rcf/processor27"
Writing addressing : "hsSphere_rcf/processor27/3e-07/polyMesh"
    pointProcAddressing
    faceProcAddressing
    cellProcAddressing
    boundaryProcAddressing

Processor 28
Read processor mesh: "hsSphere_rcf/processor28"
Writing addressing : "hsSphere_rcf/processor28/3e-07/polyMesh"
    pointProcAddressing
    faceProcAddressing
    cellProcAddressing
    boundaryProcAddressing

Processor 29
Read processor mesh: "hsSphere_rcf/processor29"
Writing addressing : "hsSphere_rcf/processor29/3e-07/polyMesh"
    pointProcAddressing
    faceProcAddressing
    cellProcAddressing
    boundaryProcAddressing

End

(standard_in) 1: syntax error
(standard_in) 1: syntax error
(standard_in) 1: syntax error
(standard_in) 1: syntax error
(standard_in) 1: syntax error
(standard_in) 1: syntax error
Highest numbered directory: 0. Moving to constant/polyMesh
mv: cannot stat '0/polyMesh': No such file or directory
./Allclean.sh: line 9: print: command not found
./Allclean.sh: line 13: print: command not found
Removing 1e-07
Removing 2e-07
Removing 3e-07
Removing processor0
Removing processor1
Removing processor10
Removing processor11
Removing processor12
Removing processor13
Removing processor14
Removing processor15
Removing processor16
Removing processor17
Removing processor18
Removing processor19
Removing processor2
Removing processor20
Removing processor21
Removing processor22
Removing processor23
Removing processor24
Removing processor25
Removing processor26
Removing processor27
Removing processor28
Removing processor29
Removing processor3
Removing processor4
Removing processor5
Removing processor6
Removing processor7
Removing processor8
Removing processor9
