/*---------------------------------------------------------------------------*\
| =========                 |                                                 |
| \\      /  F ield         | OpenFOAM: The Open Source CFD Toolbox           |
|  \\    /   O peration     | Version:  2406                                  |
|   \\  /    A nd           | Website:  www.openfoam.com                      |
|    \\/     M anipulation  |                                                 |
\*---------------------------------------------------------------------------*/
Build  : _be01ca78-20240625 OPENFOAM=2406 version=2406
Arch   : "LSB;label=32;scalar=64"
Exec   : blockMesh
Date   : Feb 25 2025
Time   : 00:07:52
Host   : DESKTOP-D65JE2G
PID    : 999150
I/O    : uncollated
Case   : /home/nkaz/OpenFOAM/nkaz-v2406/foamCases/hsSphere_rcf
nProcs : 1
trapFpe: Floating point exception trapping enabled (FOAM_SIGFPE).
fileModificationChecking : Monitoring run-time modified files using timeStampMaster (fileModificationSkew 5, maxFileModificationPolls 20)
allowSystemOperations : Allowing user-supplied system call operations

// * * * * * * * * * * * * * * * * * * * * * * * * * * * * * * * * * * * * * //
Create time

Creating block mesh from "system/blockMeshDict"
Creating block edges
No non-planar block faces defined
Creating topology blocks

Creating topology patches - from boundary section

Creating block mesh topology

Check topology

	Basic statistics
		Number of internal faces : 0
		Number of boundary faces : 6
		Number of defined boundary faces : 6
		Number of undefined boundary faces : 0
	Checking patch -> block consistency

Creating block offsets
Creating merge list (topological search)...

Creating polyMesh from blockMesh
Creating patches
Creating cells
Creating points with scale (1 1 1)
    Block 0 cell size :
        i : 0.0496029787234042 .. 0.0496029787234034
        j : 0.0494351000000001 .. 0.0494351000000001
        k : 0.0494350999999998 .. 0.0494350999999998

No patch pairs to merge

Writing polyMesh with 0 cellZones
----------------
Mesh Information
----------------
  boundingBox: (-1 -0.988702 -0.988702) (3.66268 0.988702 0.988702)
  nPoints: 159695
  nCells: 150400
  nFaces: 460320
  nInternalFaces: 442080
----------------
Patches
----------------
  patch 0 (start: 442080 size: 1600) name: inlet1
  patch 1 (start: 443680 size: 1600) name: outlet1
  patch 2 (start: 445280 size: 15040) name: walls

End

MESH_START_TIME: Tue Feb 25 00:07:53 EST 2025
/*---------------------------------------------------------------------------*\
| =========                 |                                                 |
| \\      /  F ield         | OpenFOAM: The Open Source CFD Toolbox           |
|  \\    /   O peration     | Version:  2406                                  |
|   \\  /    A nd           | Website:  www.openfoam.com                      |
|    \\/     M anipulation  |                                                 |
\*---------------------------------------------------------------------------*/
Build  : _be01ca78-20240625 OPENFOAM=2406 version=2406
Arch   : "LSB;label=32;scalar=64"
Exec   : redistributePar -decompose -parallel
Date   : Feb 25 2025
Time   : 00:07:53
Host   : DESKTOP-D65JE2G
PID    : 999158
I/O    : uncollated
Case   : /home/nkaz/OpenFOAM/nkaz-v2406/foamCases/hsSphere_rcf
nProcs : 8
Hosts  :
(
    (DESKTOP-D65JE2G 8)
)
Pstream initialized with:
    floatTransfer      : false
    maxCommsSize       : 0
    nProcsSimpleSum    : 0
    nonBlockingExchange: 0 (tuning: 0)
    exchange algorithm : 0
    commsType          : nonBlocking
    polling iterations : 0
trapFpe: Floating point exception trapping enabled (FOAM_SIGFPE).
fileModificationChecking : Monitoring run-time modified files using timeStampMaster (fileModificationSkew 5, maxFileModificationPolls 20)
allowSystemOperations : Allowing user-supplied system call operations

// * * * * * * * * * * * * * * * * * * * * * * * * * * * * * * * * * * * * * //
sigFpe : Disabling floating point exception trapping
Decomposing case (like decomposePar)

Switching to exact matching for "processors8" processor directories

--> FOAM Warning : 
    Added implicit -overwrite for decompose/reconstruct modes

Switching to exact matching for "processors8" processor directories

Creating time directories on all processors

Create time

Create undecomposed database

Setting time to that of master or undecomposed case : 0


Decomposing mesh:

Checking undecomposed mesh in case: "hsSphere_rcf"
    volume mesh [1] : "constant"
    area   mesh [0] : "constant"


Restoring caseName
I/O    : uncollated
I/O    : uncollated
Setting caseName to "hsSphere_rcf" to read undecomposed mesh
    Boundary definition OK.
Restoring caseName
Decomposition method scotch [8] (region region0)
Setting caseName to "hsSphere_rcf" to read decomposeParDict
Restoring caseName
Setting caseName to "hsSphere_rcf" to read lagrangian
Restoring caseName
Setting caseName to "hsSphere_rcf" to read IOobjects
Restoring caseName
From time 0 mesh:"constant/region0" have objects:3(U p T)
After distribution:

Processor 0
    Number of cells = 18988
    Number of faces shared with processor 1 = 941
    Number of faces shared with processor 2 = 684
    Number of faces shared with processor 3 = 348
    Number of faces shared with processor 4 = 408
    Number of faces shared with processor 6 = 21
    Number of processor patches = 5
    Number of processor faces = 2402
    Number of boundary faces = 2352

Processor 1
    Number of cells = 18613
    Number of faces shared with processor 0 = 941
    Number of faces shared with processor 2 = 377
    Number of faces shared with processor 3 = 623
    Number of faces shared with processor 4 = 484
    Number of processor patches = 4
    Number of processor faces = 2425
    Number of boundary faces = 2245

Processor 2
    Number of cells = 18964
    Number of faces shared with processor 0 = 684
    Number of faces shared with processor 1 = 377
    Number of faces shared with processor 3 = 1104
    Number of faces shared with processor 6 = 135
    Number of processor patches = 4
    Number of processor faces = 2300
    Number of boundary faces = 2956

Processor 3
    Number of cells = 18902
    Number of faces shared with processor 0 = 348
    Number of faces shared with processor 1 = 623
    Number of faces shared with processor 2 = 1104
    Number of faces shared with processor 4 = 63
    Number of faces shared with processor 6 = 761
    Number of processor patches = 5
    Number of processor faces = 2899
    Number of boundary faces = 1549

Processor 4
    Number of cells = 18949
    Number of faces shared with processor 0 = 408
    Number of faces shared with processor 1 = 484
    Number of faces shared with processor 3 = 63
    Number of faces shared with processor 5 = 863
    Number of faces shared with processor 6 = 988
    Number of faces shared with processor 7 = 43
    Number of processor patches = 6
    Number of processor faces = 2849
    Number of boundary faces = 1921

Processor 5
    Number of cells = 18613
    Number of faces shared with processor 4 = 863
    Number of faces shared with processor 6 = 51
    Number of faces shared with processor 7 = 961
    Number of processor patches = 3
    Number of processor faces = 1875
    Number of boundary faces = 2635

Processor 6
    Number of cells = 18700
    Number of faces shared with processor 0 = 21
    Number of faces shared with processor 2 = 135
    Number of faces shared with processor 3 = 761
    Number of faces shared with processor 4 = 988
    Number of faces shared with processor 5 = 51
    Number of faces shared with processor 7 = 794
    Number of processor patches = 6
    Number of processor faces = 2750
    Number of boundary faces = 1948

Processor 7
    Number of cells = 18671
    Number of faces shared with processor 4 = 43
    Number of faces shared with processor 5 = 961
    Number of faces shared with processor 6 = 794
    Number of processor patches = 3
    Number of processor faces = 1798
    Number of boundary faces = 2634

Number of processor faces = 9649
Max number of cells = 18988 (1% above average 18800)
Max number of processor patches = 6 (33.3333333333333% above average 4.5)
Max number of faces between processors = 2899 (20.1782568141776% above average 2412.25)

Written redistributed mesh to "constant"

Writing (decompose) procAddressing files to constant/polyMesh
End

Finalising parallel run
/*---------------------------------------------------------------------------*\
| =========                 |                                                 |
| \\      /  F ield         | OpenFOAM: The Open Source CFD Toolbox           |
|  \\    /   O peration     | Version:  2406                                  |
|   \\  /    A nd           | Website:  www.openfoam.com                      |
|    \\/     M anipulation  |                                                 |
\*---------------------------------------------------------------------------*/
Build  : _be01ca78-20240625 OPENFOAM=2406 version=2406
Arch   : "LSB;label=32;scalar=64"
Exec   : snappyHexMesh -parallel -overwrite
Date   : Feb 25 2025
Time   : 00:07:54
Host   : DESKTOP-D65JE2G
PID    : 999220
I/O    : uncollated
Case   : /home/nkaz/OpenFOAM/nkaz-v2406/foamCases/hsSphere_rcf
nProcs : 8
Hosts  :
(
    (DESKTOP-D65JE2G 8)
)
Pstream initialized with:
    floatTransfer      : false
    maxCommsSize       : 0
    nProcsSimpleSum    : 0
    nonBlockingExchange: 0 (tuning: 0)
    exchange algorithm : 0
    commsType          : nonBlocking
    polling iterations : 0
trapFpe: Floating point exception trapping enabled (FOAM_SIGFPE).
fileModificationChecking : Monitoring run-time modified files using timeStampMaster (fileModificationSkew 5, maxFileModificationPolls 20)
allowSystemOperations : Allowing user-supplied system call operations

// * * * * * * * * * * * * * * * * * * * * * * * * * * * * * * * * * * * * * //
Create time

Create mesh for time = 0

Read mesh in = 0.01 s

Overall mesh bounding box  : (-1 -0.988702 -0.988702) (3.66268 0.988702 0.988702)
Relative tolerance         : 1e-06
Absolute matching distance : 5.43698794746062e-06

Reading refinement surfaces.
Read refinement surfaces in = 0 s

Reading refinement shells.
Read refinement shells in = 0 s

Setting refinement level of surface to be consistent with shells.
Checked shell refinement in = 0 s

Reading features.
Read features in = 0 s


Determining initial surface intersections
-----------------------------------------

Edge intersection testing:
    Number of edges             : 460320
    Number of edges to retest   : 0
    Number of intersected edges : 0
Edge intersection testing:
    Number of edges             : 460320
    Number of edges to retest   : 460320
    Number of intersected edges : 248
Calculated surface intersections in = 0.08 s

Initial mesh : cells:150400  faces:460320  points:159695  unbalance:0.01
Cells per refinement level:
    0	150400
Setting refinement level of surface to be consistent with curvature.
Checked curvature refinement in = 0 s


Adding patches for surface regions
----------------------------------

Patch Type                Region                        
----- ----                ------                        
sphere:

3     wall                sphere                        

Added patches in = 0 s

Edge intersection testing:
    Number of edges             : 460320
    Number of edges to retest   : 0
    Number of intersected edges : 248
Decomposition method scotch [8]

Refinement phase
----------------

Found point (0 0.5 0.5) in cell 10539 on processor 0

Surface refinement iteration 0
------------------------------

Marked for refinement due to surface intersection          : 272 cells.
Marked for refinement due to curvature/regions             : 0 cells.
Determined cells to refine in = 0.02 s
Selected for refinement : 272 cells (out of 150400)
Edge intersection testing:
    Number of edges             : 466812
    Number of edges to retest   : 8428
    Number of intersected edges : 984
Refined mesh in = 0.09 s
After refinement surface refinement iteration 0 : cells:152304  faces:466812  points:162391  unbalance:0.0325664460552579
Cells per refinement level:
    0	150128
    1	2176
Skipping balancing since max unbalance 0.0325664460552579 is less than allowable 0.2

Surface refinement iteration 1
------------------------------

Marked for refinement due to surface intersection          : 1092 cells.
Marked for refinement due to curvature/regions             : 0 cells.
Determined cells to refine in = 0.02 s
Selected for refinement : 1232 cells (out of 152304)
Edge intersection testing:
    Number of edges             : 495708
    Number of edges to retest   : 37632
    Number of intersected edges : 3968
Refined mesh in = 0.1 s
After refinement surface refinement iteration 1 : cells:160928  faces:495708  points:174057  unbalance:0.140435474249354
Cells per refinement level:
    0	149984
    1	2240
    2	8704
Skipping balancing since max unbalance 0.140435474249354 is less than allowable 0.2

Surface refinement iteration 2
------------------------------

Marked for refinement due to surface intersection          : 4420 cells.
Marked for refinement due to curvature/regions             : 0 cells.
Determined cells to refine in = 0.02 s
Selected for refinement : 4936 cells (out of 160928)
Edge intersection testing:
    Number of edges             : 611376
    Number of edges to retest   : 151252
    Number of intersected edges : 15912
Refined mesh in = 0.14 s
After refinement surface refinement iteration 2 : cells:195480  faces:611376  points:220638  unbalance:0.476570493145079
Cells per refinement level:
    0	149928
    1	2192
    2	8288
    3	35072
Balancing since max unbalance 0.476570493145079 is larger than allowable 0.2
Balanced mesh in = 0.68 s
After balancing surface refinement iteration 2 : cells:195480  faces:611376  points:220638  unbalance:0.0126867198690404
Cells per refinement level:
    0	149928
    1	2192
    2	8288
    3	35072

Surface refinement iteration 3
------------------------------

Marked for refinement due to surface intersection          : 144 cells.
Marked for refinement due to curvature/regions             : 0 cells.
Determined cells to refine in = 0.02 s
Selected for refinement : 160 cells (out of 195480)
Edge intersection testing:
    Number of edges             : 614736
    Number of edges to retest   : 15024
    Number of intersected edges : 15948
Refined mesh in = 0.13 s
After refinement surface refinement iteration 3 : cells:196600  faces:614736  points:221758  unbalance:0.0108240081383519
Cells per refinement level:
    0	149928
    1	2176
    2	8272
    3	36224
Skipping balancing since max unbalance 0.0108240081383519 is less than allowable 0.2

Surface refinement iteration 4
------------------------------

Marked for refinement due to surface intersection          : 0 cells.
Marked for refinement due to curvature/regions             : 0 cells.
Determined cells to refine in = 0.03 s
Selected for refinement : 0 cells (out of 196600)
Stopping refining since too few cells selected.


Removing mesh beyond surface intersections
------------------------------------------

Setting cellZones according to locationsInMesh:
Location : (0 0.5 0.5)
    cellZone : none

For cellZone none found point (0 0.5 0.5) in global region 0 out of 2 regions.
--> FOAM Warning : 
    From void Foam::meshRefinement::nearestFace(const Foam::labelUList&, const Foam::bitSet&, Foam::autoPtr<Foam::mapDistribute>&, Foam::labelList&, Foam::label) const
    in file meshRefinement/meshRefinement.C at line 515
    Did not visit some faces, e.g. face 0 at (-0.255955319148936 -0.66737385 0.02471755)
Keeping all cells containing inside points
Selected for keeping : 189880 cells.
Edge intersection testing:
    Number of edges             : 596936
    Number of edges to retest   : 12112
    Number of intersected edges : 15948

Shell refinement iteration 0
----------------------------

Marked for refinement due to distance to explicit features : 0 cells.
Marked for refinement due to refinement shells             : 0 cells.
Determined cells to refine in = 0.15 s
Selected for internal refinement : 4192 cells (out of 189880)
Edge intersection testing:
    Number of edges             : 686222
    Number of edges to retest   : 194161
    Number of intersected edges : 15948
Refined mesh in = 0.22 s
After refinement shell refinement iteration 0 : cells:219224  faces:686222  points:247597  unbalance:0.320110936758749
Cells per refinement level:
    0	149668
    1	2682
    2	7450
    3	59424
Balancing since max unbalance 0.320110936758749 is larger than allowable 0.2
Balanced mesh in = 0.71 s
After balancing shell refinement iteration 0 : cells:219224  faces:686222  points:247614  unbalance:0.00999890522935454
Cells per refinement level:
    0	149668
    1	2682
    2	7450
    3	59424

Shell refinement iteration 1
----------------------------

Marked for refinement due to distance to explicit features : 0 cells.
Marked for refinement due to refinement shells             : 0 cells.
Determined cells to refine in = 0.04 s
Selected for internal refinement : 904 cells (out of 219224)
Edge intersection testing:
    Number of edges             : 705602
    Number of edges to retest   : 61591
    Number of intersected edges : 15948
Refined mesh in = 0.16 s
After refinement shell refinement iteration 1 : cells:225552  faces:705602  points:254340  unbalance:0.0495495495495495
Cells per refinement level:
    0	149478
    1	3718
    2	11092
    3	61264
Skipping balancing since max unbalance 0.0495495495495495 is less than allowable 0.2

Shell refinement iteration 2
----------------------------

Marked for refinement due to distance to explicit features : 0 cells.
Marked for refinement due to refinement shells             : 0 cells.
Determined cells to refine in = 0.04 s
Selected for internal refinement : 154 cells (out of 225552)
Edge intersection testing:
    Number of edges             : 708911
    Number of edges to retest   : 12931
    Number of intersected edges : 15948
Refined mesh in = 0.15 s
After refinement shell refinement iteration 2 : cells:226630  faces:708911  points:255493  unbalance:0.0601244318933944
Cells per refinement level:
    0	149383
    1	4419
    2	11564
    3	61264
Skipping balancing since max unbalance 0.0601244318933944 is less than allowable 0.2

Shell refinement iteration 3
----------------------------

Marked for refinement due to distance to explicit features : 0 cells.
Marked for refinement due to refinement shells             : 0 cells.
Determined cells to refine in = 0.04 s
Selected for internal refinement : 13 cells (out of 226630)
Stopping refining since too few cells selected.


Dangling coarse cells refinement iteration 0
--------------------------------------------

Determined cells to refine in = 0 s
Selected for refinement : 0 cells (out of 226630)
Stopping refining since too few cells selected.


Dangling coarse cells refinement iteration 0
--------------------------------------------

Determined cells to refine in = 0 s
Selected for refinement : 0 cells (out of 226630)
Stopping refining since too few cells selected.


Refinement transition refinement iteration 0
--------------------------------------------

Determined cells to refine in = 0 s
Selected for refinement : 0 cells (out of 226630)
Stopping refining since too few cells selected.


Splitting mesh at surface intersections
---------------------------------------

Introducing baffles for 15948 faces that are intersected by the surface.

Setting cellZones according to locationsInMesh:
Location : (0 0.5 0.5)
    cellZone : none

For cellZone none found point (0 0.5 0.5) in global region 0 out of 2 regions.
Edge intersection testing:
    Number of edges             : 724859
    Number of edges to retest   : 85068
    Number of intersected edges : 31896
Created baffles in = 0.14 s


After introducing baffles : cells:226630  faces:724859  points:255494  unbalance:0.0601244318933944
Cells per refinement level:
    0	149383
    1	4419
    2	11564
    3	61264

Introducing baffles to block off problem cells
----------------------------------------------

markFacesOnProblemCells : marked 23757 additional internal faces to be converted into baffles.
Analyzed problem cells in = 0.11 s


Introducing baffles to delete problem cells.

Edge intersection testing:
    Number of edges             : 748347
    Number of edges to retest   : 81934
    Number of intersected edges : 31896
Created baffles in = 0.1 s


After introducing baffles : cells:226630  faces:748347  points:255897  unbalance:0.0601244318933944
Cells per refinement level:
    0	149383
    1	4419
    2	11564
    3	61264
Setting cellZones according to locationsInMesh:
Location : (0 0.5 0.5)
    cellZone : none

For cellZone none found point (0 0.5 0.5) in global region 0 out of 10585 regions.
Edge intersection testing:
    Number of edges             : 748347
    Number of edges to retest   : 93711
    Number of intersected edges : 31896

Remove unreachable sections of mesh
-----------------------------------

Keeping all cells containing points 1((0 0.5 0.5))
Selected for keeping : 207486 cells.
Edge intersection testing:
    Number of edges             : 650787
    Number of edges to retest   : 0
    Number of intersected edges : 15960
Split mesh in = 0.29 s


After subsetting : cells:207486  faces:650787  points:235991  unbalance:0.132047463443317
Cells per refinement level:
    0	149383
    1	4419
    2	11564
    3	42120

Introducing zones for interfaces
--------------------------------

Setting cellZones according to locationsInMesh:
Location : (0 0.5 0.5)
    cellZone : none

For cellZone none found point (0 0.5 0.5) in global region 0 out of 1 regions.
Setting faceZones according to neighbouring cellZones:

Edge intersection testing:
    Number of edges             : 650787
    Number of edges to retest   : 0
    Number of intersected edges : 15960

Handling cells with snap problems
---------------------------------

Introducing baffles for 15960 faces that are intersected by the surface.

Setting cellZones according to locationsInMesh:
Location : (0 0.5 0.5)
    cellZone : none

For cellZone none found point (0 0.5 0.5) in global region 0 out of 1 regions.
Edge intersection testing:
    Number of edges             : 650787
    Number of edges to retest   : 43640
    Number of intersected edges : 15960
Created baffles in = 0.26 s


After introducing baffles : cells:207486  faces:650787  points:235991  unbalance:0.132047463443317
Cells per refinement level:
    0	149383
    1	4419
    2	11564
    3	42120

Introducing baffles to block off problem cells
----------------------------------------------

markFacesOnProblemCells : marked 0 additional internal faces to be converted into baffles.
Analyzed problem cells in = 0.08 s


Introducing baffles to delete problem cells.

Created baffles in = 0.01 s


After introducing baffles : cells:207486  faces:650787  points:235991  unbalance:0.132047463443317
Cells per refinement level:
    0	149383
    1	4419
    2	11564
    3	42120
Setting cellZones according to locationsInMesh:
Location : (0 0.5 0.5)
    cellZone : none

For cellZone none found point (0 0.5 0.5) in global region 0 out of 1 regions.
Edge intersection testing:
    Number of edges             : 650787
    Number of edges to retest   : 43640
    Number of intersected edges : 15960

Remove unreachable sections of mesh
-----------------------------------

Split mesh in = 0.13 s


After subsetting : cells:207486  faces:650787  points:235991  unbalance:0.132047463443317
Cells per refinement level:
    0	149383
    1	4419
    2	11564
    3	42120

Merge free-standing baffles
---------------------------

freeStandingBaffles : detected 12 free-standing baffles out of 12

freeStandingBaffles : detected 12 planar (within 30 degrees) free-standing baffles out of 12

Detected free-standing baffles : 12
Edge intersection testing:
    Number of edges             : 650775
    Number of edges to retest   : 12
    Number of intersected edges : 15948

Introducing baffles to block off problem cells
----------------------------------------------

markFacesOnProblemCells : marked 0 additional internal faces to be converted into baffles.
Analyzed problem cells in = 0.21 s


Introducing baffles to delete problem cells.

Created baffles in = 0.01 s


After introducing baffles : cells:207486  faces:650775  points:235991  unbalance:0.132047463443317
Cells per refinement level:
    0	149383
    1	4419
    2	11564
    3	42120

Remove unreachable sections of mesh
-----------------------------------

Merged free-standing baffles in = 0.02 s


dupNonManifoldPoints : Found : 0 non-manifold points (out of 248182)
Detected unsplittable baffles : 0

Merge refined boundary faces
----------------------------

Merging 0 sets of faces.

No faces merged ...

Merging all points on surface that
- are used by only two boundary faces and
- make an angle with a cosine of more than 0.707106781186548.

No straight edges simplified and no points removed ...

Doing final balancing
---------------------

Found 0 zoned faces to keep together.
Found 0 separated coupled faces to keep together.
Refined mesh : cells:207486  faces:650775  points:235991  unbalance:0.0100151335511793
Cells per refinement level:
    0	149383
    1	4419
    2	11564
    3	42120
Writing mesh to time constant
Wrote mesh in = 0.02 s.
Mesh refined in = 4.88 s.

Morphing phase
--------------

Duplicating 0 points on faceZones of type boundary
Snapping to features in 15 iterations ...
Constructing mesh displacer ...
Using mesh parameters 
{
    maxNonOrtho     65;
    maxBoundarySkewness 20;
    maxInternalSkewness 4;
    maxConcave      80;
    minVol          1e-13;
    minTetQuality   1e-15;
    minArea         -1;
    minTwist        0.02;
    minDeterminant  0.001;
    minFaceWeight   0.02;
    minVolRatio     0.01;
    minTriangleTwist -1;
    minEdgeLength   -1;
    nSmoothScale    4;
    errorReduction  0.75;
}


Checking initial mesh ...
Checking faces in error :
    non-orthogonality > 65  degrees                        : 0
    faces with face pyramid volume < 1e-13                 : 0
    faces with face-decomposition tet quality < 1e-15      : 0
    faces with concavity > 80  degrees                     : 0
    faces with skewness > 4   (internal) or 20  (boundary) : 0
    faces with interpolation weights (0..1)  < 0.02        : 0
    faces with volume ratio of neighbour cells < 0.01      : 0
    faces with face twist < 0.02                           : 0
    faces on cells with determinant < 0.001                : 0
Detected 0 illegal faces (concave, zero area or negative cell pyramid volume)
Checked initial mesh in = 0.88 s


Smoothing patch points ...
Smoothing iteration 0
Found 0 non-manifold point(s).

Scaling iteration 0
Moving mesh using displacement scaling : min:1  max:1
Checking faces in error :
    non-orthogonality > 65  degrees                        : 0
    faces with face pyramid volume < 1e-13                 : 0
    faces with face-decomposition tet quality < 1e-15      : 0
    faces with concavity > 80  degrees                     : 0
    faces with skewness > 4   (internal) or 20  (boundary) : 0
    faces with interpolation weights (0..1)  < 0.02        : 0
    faces with volume ratio of neighbour cells < 0.01      : 0
    faces with face twist < 0.02                           : 0
    faces on cells with determinant < 0.001                : 0
Successfully moved mesh

Smoothing iteration 1
Found 0 non-manifold point(s).

Scaling iteration 0
Moving mesh using displacement scaling : min:1  max:1
Checking faces in error :
    non-orthogonality > 65  degrees                        : 0
    faces with face pyramid volume < 1e-13                 : 0
    faces with face-decomposition tet quality < 1e-15      : 0
    faces with concavity > 80  degrees                     : 0
    faces with skewness > 4   (internal) or 20  (boundary) : 0
    faces with interpolation weights (0..1)  < 0.02        : 0
    faces with volume ratio of neighbour cells < 0.01      : 0
    faces with face twist < 0.02                           : 0
    faces on cells with determinant < 0.001                : 0
Successfully moved mesh

Smoothing iteration 2
Found 0 non-manifold point(s).

Scaling iteration 0
Moving mesh using displacement scaling : min:1  max:1
Checking faces in error :
    non-orthogonality > 65  degrees                        : 0
    faces with face pyramid volume < 1e-13                 : 0
    faces with face-decomposition tet quality < 1e-15      : 0
    faces with concavity > 80  degrees                     : 0
    faces with skewness > 4   (internal) or 20  (boundary) : 0
    faces with interpolation weights (0..1)  < 0.02        : 0
    faces with volume ratio of neighbour cells < 0.01      : 0
    faces with face twist < 0.02                           : 0
    faces on cells with determinant < 0.001                : 0
Successfully moved mesh

Smoothing iteration 3
Found 0 non-manifold point(s).

Scaling iteration 0
Moving mesh using displacement scaling : min:1  max:1
Checking faces in error :
    non-orthogonality > 65  degrees                        : 0
    faces with face pyramid volume < 1e-13                 : 0
    faces with face-decomposition tet quality < 1e-15      : 0
    faces with concavity > 80  degrees                     : 0
    faces with skewness > 4   (internal) or 20  (boundary) : 0
    faces with interpolation weights (0..1)  < 0.02        : 0
    faces with volume ratio of neighbour cells < 0.01      : 0
    faces with face twist < 0.02                           : 0
    faces on cells with determinant < 0.001                : 0
Successfully moved mesh

Smoothing iteration 4
Found 0 non-manifold point(s).

Scaling iteration 0
Moving mesh using displacement scaling : min:1  max:1
Checking faces in error :
    non-orthogonality > 65  degrees                        : 0
    faces with face pyramid volume < 1e-13                 : 0
    faces with face-decomposition tet quality < 1e-15      : 0
    faces with concavity > 80  degrees                     : 0
    faces with skewness > 4   (internal) or 20  (boundary) : 0
    faces with interpolation weights (0..1)  < 0.02        : 0
    faces with volume ratio of neighbour cells < 0.01      : 0
    faces with face twist < 0.02                           : 0
    faces on cells with determinant < 0.001                : 0
Successfully moved mesh

Patch points smoothed in = 0.51 s



Morph iteration 0
-----------------
Calculating patchDisplacement as distance to nearest surface point ...
    non-zone points : attract to nearest of all non-zone surfaces
    zone points     : attract to zone surface only

Wanted displacement : average:0.00112636789482428 min:2.83798535462728e-06 max:0.00290424228791393
Calculated surface displacement in = 0 s


Detecting near surfaces ...
Overriding nearest with intersection of close gaps at 0 out of 16310 points.
Overriding displacement on features :
   implicit features    : false
   explicit features    : true
   multi-patch features : false

Detected 0 baffle edges out of 32243 edges.
Baffle points     : 0 of which attracted to :
    feature point : 0
    feature edge  : 0
    rest          : 0

Initially selected 0 mesh points out of 16310 for reverse attraction.
Selected 0 mesh points out of 16310 for reverse attraction.
Stringing feature edges : changed 0 points
Attraction:
    linear   : max:(0.00289778408886379 0.000193573348463606 1.22031216958686e-19) avg:(-1.54596355418923e-05 3.1834102287219e-18 2.24649846556414e-18)
    feature  : max:(0 0 0) avg:(0 0 0)
Feature analysis : total master points :15938 of which attracted to :
    feature point   : 0
    feature edge    : 0
    nearest surface : 0
    rest            : 15938

Smoothing displacement ...
Iteration 0
Iteration 10
Iteration 20
Displacement smoothed in = 0.21 s


Moving mesh ...

Iteration 0
Moving mesh using displacement scaling : min:1  max:1
Checking faces in error :
    non-orthogonality > 65  degrees                        : 0
    faces with face pyramid volume < 1e-13                 : 0
    faces with face-decomposition tet quality < 1e-15      : 0
    faces with concavity > 80  degrees                     : 0
    faces with skewness > 4   (internal) or 20  (boundary) : 0
    faces with interpolation weights (0..1)  < 0.02        : 0
    faces with volume ratio of neighbour cells < 0.01      : 0
    faces with face twist < 0.02                           : 0
    faces on cells with determinant < 0.001                : 0
Successfully moved mesh
Moved mesh in = 0.09 s



Morph iteration 1
-----------------
Calculating patchDisplacement as distance to nearest surface point ...
    non-zone points : attract to nearest of all non-zone surfaces
    zone points     : attract to zone surface only

Wanted displacement : average:0.00105436699768002 min:6.18458717951937e-06 max:0.00276314265930533
Calculated surface displacement in = 0.01 s


Detecting near surfaces ...
Overriding nearest with intersection of close gaps at 0 out of 16310 points.
Overriding displacement on features :
   implicit features    : false
   explicit features    : true
   multi-patch features : false

Detected 0 baffle edges out of 32243 edges.
Baffle points     : 0 of which attracted to :
    feature point : 0
    feature edge  : 0
    rest          : 0

Initially selected 0 mesh points out of 16310 for reverse attraction.
Selected 0 mesh points out of 16310 for reverse attraction.
Stringing feature edges : changed 0 points
Attraction:
    linear   : max:(0.00275699521915351 0.000184213781345532 1.15733680723316e-19) avg:(-1.44303276530934e-05 3.43418215045929e-18 3.44114803717422e-18)
    feature  : max:(0 0 0) avg:(0 0 0)
Feature analysis : total master points :15938 of which attracted to :
    feature point   : 0
    feature edge    : 0
    nearest surface : 0
    rest            : 15938

Smoothing displacement ...
Iteration 0
Iteration 10
Iteration 20
Displacement smoothed in = 0.17 s


Moving mesh ...

Iteration 0
Moving mesh using displacement scaling : min:1  max:1
Checking faces in error :
    non-orthogonality > 65  degrees                        : 0
    faces with face pyramid volume < 1e-13                 : 0
    faces with face-decomposition tet quality < 1e-15      : 0
    faces with concavity > 80  degrees                     : 0
    faces with skewness > 4   (internal) or 20  (boundary) : 0
    faces with interpolation weights (0..1)  < 0.02        : 0
    faces with volume ratio of neighbour cells < 0.01      : 0
    faces with face twist < 0.02                           : 0
    faces on cells with determinant < 0.001                : 0
Successfully moved mesh
Moved mesh in = 0.1 s



Morph iteration 2
-----------------
Calculating patchDisplacement as distance to nearest surface point ...
    non-zone points : attract to nearest of all non-zone surfaces
    zone points     : attract to zone surface only

Wanted displacement : average:0.000920681135148678 min:1.45288961641612e-06 max:0.00249450435334242
Calculated surface displacement in = 0 s


Detecting near surfaces ...
Overriding nearest with intersection of close gaps at 0 out of 16310 points.
Overriding displacement on features :
   implicit features    : false
   explicit features    : true
   multi-patch features : false

Detected 0 baffle edges out of 32243 edges.
Baffle points     : 0 of which attracted to :
    feature point : 0
    feature edge  : 0
    rest          : 0

Initially selected 0 mesh points out of 16310 for reverse attraction.
Selected 0 mesh points out of 16310 for reverse attraction.
Stringing feature edges : changed 0 points
Attraction:
    linear   : max:(-0.00139897799832366 -0.00150165202677773 -0.00141790469338562) avg:(-1.25081107497693e-05 3.08240487135545e-18 2.260430238994e-18)
    feature  : max:(0 0 0) avg:(0 0 0)
Feature analysis : total master points :15938 of which attracted to :
    feature point   : 0
    feature edge    : 0
    nearest surface : 0
    rest            : 15938

--> FOAM Warning : Displacement (5.18429135483052e-06 1.96291928048247e-20 -3.39875138300992e-20) at mesh point 21485 coord (0.179320382934724 -2.86381889366585e-18 -3.70710752433251e-18) points through the surrounding patch faces
Smoothing displacement ...
Iteration 0
Iteration 10
Iteration 20
Displacement smoothed in = 0.18 s


Moving mesh ...

Iteration 0
Moving mesh using displacement scaling : min:1  max:1
Checking faces in error :
    non-orthogonality > 65  degrees                        : 0
    faces with face pyramid volume < 1e-13                 : 0
    faces with face-decomposition tet quality < 1e-15      : 0
    faces with concavity > 80  degrees                     : 0
    faces with skewness > 4   (internal) or 20  (boundary) : 0
    faces with interpolation weights (0..1)  < 0.02        : 0
    faces with volume ratio of neighbour cells < 0.01      : 0
    faces with face twist < 0.02                           : 0
    faces on cells with determinant < 0.001                : 0
Successfully moved mesh
Moved mesh in = 0.1 s



Morph iteration 3
-----------------
Calculating patchDisplacement as distance to nearest surface point ...
    non-zone points : attract to nearest of all non-zone surfaces
    zone points     : attract to zone surface only

Wanted displacement : average:0.000748116907739467 min:2.68318140536104e-06 max:0.00219958452919478
Calculated surface displacement in = 0 s


Detecting near surfaces ...
Overriding nearest with intersection of close gaps at 0 out of 16310 points.
Overriding displacement on features :
   implicit features    : false
   explicit features    : true
   multi-patch features : false

Detected 0 baffle edges out of 32243 edges.
Baffle points     : 0 of which attracted to :
    feature point : 0
    feature edge  : 0
    rest          : 0

Initially selected 0 mesh points out of 16310 for reverse attraction.
Selected 0 mesh points out of 16310 for reverse attraction.
Stringing feature edges : changed 0 points
Attraction:
    linear   : max:(-0.00123358098322131 0.00125027138480283 -0.00132411159773298) avg:(-1.00074102353715e-05 1.96786299696704e-18 3.09981958814277e-18)
    feature  : max:(0 0 0) avg:(0 0 0)
Feature analysis : total master points :15938 of which attracted to :
    feature point   : 0
    feature edge    : 0
    nearest surface : 0
    rest            : 15938

--> FOAM Warning : Displacement (7.16102562009327e-06 4.11847567126213e-06 -4.11847567126222e-06) at mesh point 12589 coord (0.179274795106378 -0.00616932902455603 0.00616932902455602) points through the surrounding patch faces
Smoothing displacement ...
Iteration 0
Iteration 10
Iteration 20
Displacement smoothed in = 0.2 s


Moving mesh ...

Iteration 0
Moving mesh using displacement scaling : min:1  max:1
Checking faces in error :
    non-orthogonality > 65  degrees                        : 0
    faces with face pyramid volume < 1e-13                 : 0
    faces with face-decomposition tet quality < 1e-15      : 0
    faces with concavity > 80  degrees                     : 0
    faces with skewness > 4   (internal) or 20  (boundary) : 0
    faces with interpolation weights (0..1)  < 0.02        : 0
    faces with volume ratio of neighbour cells < 0.01      : 0
    faces with face twist < 0.02                           : 0
    faces on cells with determinant < 0.001                : 0
Successfully moved mesh
Moved mesh in = 0.09 s



Morph iteration 4
-----------------
Calculating patchDisplacement as distance to nearest surface point ...
    non-zone points : attract to nearest of all non-zone surfaces
    zone points     : attract to zone surface only

Wanted displacement : average:0.000569521597412762 min:4.98336202958727e-07 max:0.00184618938783737
Calculated surface displacement in = 0 s


Detecting near surfaces ...
Overriding nearest with intersection of close gaps at 0 out of 16310 points.
Overriding displacement on features :
   implicit features    : false
   explicit features    : true
   multi-patch features : false

Detected 0 baffle edges out of 32243 edges.
Baffle points     : 0 of which attracted to :
    feature point : 0
    feature edge  : 0
    rest          : 0

Initially selected 0 mesh points out of 16310 for reverse attraction.
Selected 0 mesh points out of 16310 for reverse attraction.
Stringing feature edges : changed 0 points
Attraction:
    linear   : max:(-0.00103539063983758 -0.00111136717902796 -0.00104940195925082) avg:(-7.33755316659405e-06 1.66310545318896e-18 2.15942488162755e-18)
    feature  : max:(0 0 0) avg:(0 0 0)
Feature analysis : total master points :15938 of which attracted to :
    feature point   : 0
    feature edge    : 0
    nearest surface : 0
    rest            : 15938

--> FOAM Warning : Displacement (7.77930233297838e-06 -1.52634787340278e-19 1.88505572394536e-06) at mesh point 6913 coord (0.16051838278916 -3.06602307865814e-18 0.0807317496938529) points through the surrounding patch faces
Smoothing displacement ...
Iteration 0
Iteration 10
Iteration 20
Displacement smoothed in = 0.17 s


Moving mesh ...

Iteration 0
Moving mesh using displacement scaling : min:1  max:1
Checking faces in error :
    non-orthogonality > 65  degrees                        : 0
    faces with face pyramid volume < 1e-13                 : 0
    faces with face-decomposition tet quality < 1e-15      : 0
    faces with concavity > 80  degrees                     : 0
    faces with skewness > 4   (internal) or 20  (boundary) : 0
    faces with interpolation weights (0..1)  < 0.02        : 0
    faces with volume ratio of neighbour cells < 0.01      : 0
    faces with face twist < 0.02                           : 0
    faces on cells with determinant < 0.001                : 0
Successfully moved mesh
Moved mesh in = 0.1 s



Morph iteration 5
-----------------
Calculating patchDisplacement as distance to nearest surface point ...
    non-zone points : attract to nearest of all non-zone surfaces
    zone points     : attract to zone surface only

Wanted displacement : average:0.000415489412594998 min:5.69538847544847e-07 max:0.00146920041401235
Calculated surface displacement in = 0 s


Detecting near surfaces ...
Overriding nearest with intersection of close gaps at 0 out of 16310 points.
Overriding displacement on features :
   implicit features    : false
   explicit features    : true
   multi-patch features : false

Detected 0 baffle edges out of 32243 edges.
Baffle points     : 0 of which attracted to :
    feature point : 0
    feature edge  : 0
    rest          : 0

Initially selected 0 mesh points out of 16310 for reverse attraction.
Selected 0 mesh points out of 16310 for reverse attraction.
Stringing feature edges : changed 0 points
Attraction:
    linear   : max:(-0.000823967710697024 0.000835120440803014 -0.000884421233132579) avg:(-4.88787443295012e-06 1.17636411898339e-18 1.42974824823888e-18)
    feature  : max:(0 0 0) avg:(0 0 0)
Feature analysis : total master points :15938 of which attracted to :
    feature point   : 0
    feature edge    : 0
    nearest surface : 0
    rest            : 15938

--> FOAM Warning : Displacement (3.5377495035452e-05 -2.41739692105696e-19 1.49441901496939e-05) at mesh point 6913 coord (0.160526162091493 -3.21865786599841e-18 0.0807336347495768) points through the surrounding patch faces
Smoothing displacement ...
Iteration 0
Iteration 10
Iteration 20
Displacement smoothed in = 0.17 s


Moving mesh ...

Iteration 0
Moving mesh using displacement scaling : min:1  max:1
Checking faces in error :
    non-orthogonality > 65  degrees                        : 0
    faces with face pyramid volume < 1e-13                 : 0
    faces with face-decomposition tet quality < 1e-15      : 0
    faces with concavity > 80  degrees                     : 0
    faces with skewness > 4   (internal) or 20  (boundary) : 0
    faces with interpolation weights (0..1)  < 0.02        : 0
    faces with volume ratio of neighbour cells < 0.01      : 0
    faces with face twist < 0.02                           : 0
    faces on cells with determinant < 0.001                : 0
Successfully moved mesh
Moved mesh in = 0.1 s



Morph iteration 6
-----------------
Calculating patchDisplacement as distance to nearest surface point ...
    non-zone points : attract to nearest of all non-zone surfaces
    zone points     : attract to zone surface only

Wanted displacement : average:0.000296103814214471 min:1.00459026696494e-07 max:0.00110226109963147
Calculated surface displacement in = 0 s


Detecting near surfaces ...
Overriding nearest with intersection of close gaps at 0 out of 16310 points.
Overriding displacement on features :
   implicit features    : false
   explicit features    : true
   multi-patch features : false

Detected 0 baffle edges out of 32243 edges.
Baffle points     : 0 of which attracted to :
    feature point : 0
    feature edge  : 0
    rest          : 0

Initially selected 0 mesh points out of 16310 for reverse attraction.
Selected 0 mesh points out of 16310 for reverse attraction.
Stringing feature edges : changed 0 points
Attraction:
    linear   : max:(-0.000618179368073596 -0.000663529159651718 -0.000626548366002802) avg:(-2.92676482527162e-06 3.88348184357212e-19 4.77163239972539e-19)
    feature  : max:(0 0 0) avg:(0 0 0)
Feature analysis : total master points :15938 of which attracted to :
    feature point   : 0
    feature edge    : 0
    nearest surface : 0
    rest            : 15938

--> FOAM Warning : Displacement (-1.10319842126651e-05 -2.26910503868912e-05 1.82487289472668e-19) at mesh point 432 coord (-0.0600429583239299 -0.169360620038412 -3.95616766651081e-18) points through the surrounding patch faces
Smoothing displacement ...
Iteration 0
Iteration 10
Iteration 20
Displacement smoothed in = 0.18 s


Moving mesh ...

Iteration 0
Moving mesh using displacement scaling : min:1  max:1
Checking faces in error :
    non-orthogonality > 65  degrees                        : 0
    faces with face pyramid volume < 1e-13                 : 0
    faces with face-decomposition tet quality < 1e-15      : 0
    faces with concavity > 80  degrees                     : 0
    faces with skewness > 4   (internal) or 20  (boundary) : 0
    faces with interpolation weights (0..1)  < 0.02        : 0
    faces with volume ratio of neighbour cells < 0.01      : 0
    faces with face twist < 0.02                           : 0
    faces on cells with determinant < 0.001                : 0
Successfully moved mesh
Moved mesh in = 0.1 s



Morph iteration 7
-----------------
Calculating patchDisplacement as distance to nearest surface point ...
    non-zone points : attract to nearest of all non-zone surfaces
    zone points     : attract to zone surface only

Wanted displacement : average:0.000207478725536545 min:2.17086639066855e-07 max:0.000772740250416907
Calculated surface displacement in = 0 s


Detecting near surfaces ...
Overriding nearest with intersection of close gaps at 0 out of 16310 points.
Overriding displacement on features :
   implicit features    : false
   explicit features    : true
   multi-patch features : false

Detected 0 baffle edges out of 32243 edges.
Baffle points     : 0 of which attracted to :
    feature point : 0
    feature edge  : 0
    rest          : 0

Initially selected 0 mesh points out of 16310 for reverse attraction.
Selected 0 mesh points out of 16310 for reverse attraction.
Stringing feature edges : changed 0 points
Attraction:
    linear   : max:(-0.000433375010348222 -0.000465165864840647 -0.000439242886347765) avg:(-1.55404753794668e-06 4.20130042494069e-19 2.20296167359585e-19)
    feature  : max:(0 0 0) avg:(0 0 0)
Feature analysis : total master points :15938 of which attracted to :
    feature point   : 0
    feature edge    : 0
    nearest surface : 0
    rest            : 15938

--> FOAM Warning : Displacement (-1.6840889299522e-06 -7.16266838852225e-06 6.54532192075736e-20) at mesh point 402 coord (-0.101017107196805 -0.148860660067893 -5.40356299145762e-18) points through the surrounding patch faces
Smoothing displacement ...
Iteration 0
Iteration 10
Iteration 20
Displacement smoothed in = 0.18 s


Moving mesh ...

Iteration 0
Moving mesh using displacement scaling : min:1  max:1
Checking faces in error :
    non-orthogonality > 65  degrees                        : 0
    faces with face pyramid volume < 1e-13                 : 0
    faces with face-decomposition tet quality < 1e-15      : 0
    faces with concavity > 80  degrees                     : 0
    faces with skewness > 4   (internal) or 20  (boundary) : 0
    faces with interpolation weights (0..1)  < 0.02        : 0
    faces with volume ratio of neighbour cells < 0.01      : 0
    faces with face twist < 0.02                           : 0
    faces on cells with determinant < 0.001                : 0
Successfully moved mesh
Moved mesh in = 0.09 s



Morph iteration 8
-----------------
Calculating patchDisplacement as distance to nearest surface point ...
    non-zone points : attract to nearest of all non-zone surfaces
    zone points     : attract to zone surface only

Wanted displacement : average:0.000139586813914998 min:8.28819653079426e-08 max:0.000509838614812392
Calculated surface displacement in = 0 s


Detecting near surfaces ...
Overriding nearest with intersection of close gaps at 0 out of 16310 points.
Overriding displacement on features :
   implicit features    : false
   explicit features    : true
   multi-patch features : false

Detected 0 baffle edges out of 32243 edges.
Baffle points     : 0 of which attracted to :
    feature point : 0
    feature edge  : 0
    rest          : 0

Initially selected 0 mesh points out of 16310 for reverse attraction.
Selected 0 mesh points out of 16310 for reverse attraction.
Stringing feature edges : changed 0 points
Attraction:
    linear   : max:(-0.000233327345550607 -0.000254492325633335 -0.000375136534032428) avg:(-7.18773835699831e-07 1.71099592435409e-19 1.48678144571735e-19)
    feature  : max:(0 0 0) avg:(0 0 0)
Feature analysis : total master points :15938 of which attracted to :
    feature point   : 0
    feature edge    : 0
    nearest surface : 0
    rest            : 15938

--> FOAM Warning : Displacement (-1.2413028289686e-05 -2.20847082160925e-05 6.28299880794541e-20) at mesh point 402 coord (-0.101018791285735 -0.148867822736281 -5.33810977225004e-18) points through the surrounding patch faces
Smoothing displacement ...
Iteration 0
Iteration 10
Iteration 20
Displacement smoothed in = 0.19 s


Moving mesh ...

Iteration 0
Moving mesh using displacement scaling : min:1  max:1
Checking faces in error :
    non-orthogonality > 65  degrees                        : 0
    faces with face pyramid volume < 1e-13                 : 0
    faces with face-decomposition tet quality < 1e-15      : 0
    faces with concavity > 80  degrees                     : 0
    faces with skewness > 4   (internal) or 20  (boundary) : 0
    faces with interpolation weights (0..1)  < 0.02        : 0
    faces with volume ratio of neighbour cells < 0.01      : 0
    faces with face twist < 0.02                           : 0
    faces on cells with determinant < 0.001                : 0
Successfully moved mesh
Moved mesh in = 0.1 s



Morph iteration 9
-----------------
Calculating patchDisplacement as distance to nearest surface point ...
    non-zone points : attract to nearest of all non-zone surfaces
    zone points     : attract to zone surface only

Wanted displacement : average:8.65922801248677e-05 min:1.05275103880899e-07 max:0.000321958390225906
Calculated surface displacement in = 0 s


Detecting near surfaces ...
Overriding nearest with intersection of close gaps at 0 out of 16310 points.
Overriding displacement on features :
   implicit features    : false
   explicit features    : true
   multi-patch features : false

Detected 0 baffle edges out of 32243 edges.
Baffle points     : 0 of which attracted to :
    feature point : 0
    feature edge  : 0
    rest          : 0

Initially selected 0 mesh points out of 16310 for reverse attraction.
Selected 0 mesh points out of 16310 for reverse attraction.
Stringing feature edges : changed 0 points
Attraction:
    linear   : max:(0.00013138635816777 -0.000138818687523537 0.000259083387963238) avg:(-2.8251932941078e-07 9.88285177680349e-20 1.14501762876622e-19)
    feature  : max:(0 0 0) avg:(0 0 0)
Feature analysis : total master points :15938 of which attracted to :
    feature point   : 0
    feature edge    : 0
    nearest surface : 0
    rest            : 15938

--> FOAM Warning : Displacement (-1.4705809839597e-05 -2.3838716860724e-05 3.45089343852116e-20) at mesh point 402 coord (-0.101031204314025 -0.148889907444497 -5.27527978417059e-18) points through the surrounding patch faces
Smoothing displacement ...
Iteration 0
Iteration 10
Iteration 20
Displacement smoothed in = 0.18 s


Moving mesh ...

Iteration 0
Moving mesh using displacement scaling : min:1  max:1
Checking faces in error :
    non-orthogonality > 65  degrees                        : 0
    faces with face pyramid volume < 1e-13                 : 0
    faces with face-decomposition tet quality < 1e-15      : 0
    faces with concavity > 80  degrees                     : 0
    faces with skewness > 4   (internal) or 20  (boundary) : 0
    faces with interpolation weights (0..1)  < 0.02        : 0
    faces with volume ratio of neighbour cells < 0.01      : 0
    faces with face twist < 0.02                           : 0
    faces on cells with determinant < 0.001                : 0
Successfully moved mesh
Moved mesh in = 0.1 s



Morph iteration 10
-----------------
Calculating patchDisplacement as distance to nearest surface point ...
    non-zone points : attract to nearest of all non-zone surfaces
    zone points     : attract to zone surface only

Wanted displacement : average:4.72186991191569e-05 min:1.28414324167894e-07 max:0.000177966840927705
Calculated surface displacement in = 0 s


Detecting near surfaces ...
Overriding nearest with intersection of close gaps at 0 out of 16310 points.
Overriding displacement on features :
   implicit features    : false
   explicit features    : true
   multi-patch features : false

Detected 0 baffle edges out of 32243 edges.
Baffle points     : 0 of which attracted to :
    feature point : 0
    feature edge  : 0
    rest          : 0

Initially selected 0 mesh points out of 16310 for reverse attraction.
Selected 0 mesh points out of 16310 for reverse attraction.
Stringing feature edges : changed 0 points
Attraction:
    linear   : max:(7.26244338040416e-05 -0.000143212941209836 7.67329235364933e-05) avg:(-9.0991371672375e-08 -7.68424378240448e-20 1.30664796894852e-19)
    feature  : max:(0 0 0) avg:(0 0 0)
Feature analysis : total master points :15938 of which attracted to :
    feature point   : 0
    feature edge    : 0
    nearest surface : 0
    rest            : 15938

--> FOAM Warning : Displacement (-1.15419974938608e-05 -1.78834895311375e-05 7.43359848853318e-20) at mesh point 402 coord (-0.101045910123865 -0.148913746161358 -5.24077084978538e-18) points through the surrounding patch faces
Smoothing displacement ...
Iteration 0
Iteration 10
Iteration 20
Displacement smoothed in = 0.18 s


Moving mesh ...

Iteration 0
Moving mesh using displacement scaling : min:1  max:1
Checking faces in error :
    non-orthogonality > 65  degrees                        : 0
    faces with face pyramid volume < 1e-13                 : 0
    faces with face-decomposition tet quality < 1e-15      : 0
    faces with concavity > 80  degrees                     : 0
    faces with skewness > 4   (internal) or 20  (boundary) : 0
    faces with interpolation weights (0..1)  < 0.02        : 0
    faces with volume ratio of neighbour cells < 0.01      : 0
    faces with face twist < 0.02                           : 0
    faces on cells with determinant < 0.001                : 0
Successfully moved mesh
Moved mesh in = 0.09 s



Morph iteration 11
-----------------
Calculating patchDisplacement as distance to nearest surface point ...
    non-zone points : attract to nearest of all non-zone surfaces
    zone points     : attract to zone surface only

Wanted displacement : average:2.15519792192722e-05 min:1.70421290420534e-08 max:8.22417682472476e-05
Calculated surface displacement in = 0 s


Detecting near surfaces ...
Overriding nearest with intersection of close gaps at 0 out of 16310 points.
Overriding displacement on features :
   implicit features    : false
   explicit features    : true
   multi-patch features : false

Detected 0 baffle edges out of 32243 edges.
Baffle points     : 0 of which attracted to :
    feature point : 0
    feature edge  : 0
    rest          : 0

Initially selected 0 mesh points out of 16310 for reverse attraction.
Selected 0 mesh points out of 16310 for reverse attraction.
Stringing feature edges : changed 0 points
Attraction:
    linear   : max:(3.35608985682218e-05 -3.54595193606394e-05 -6.6181545905486e-05) avg:(-2.26352273149464e-08 7.79852786132126e-20 2.17683959841487e-21)
    feature  : max:(0 0 0) avg:(0 0 0)
Feature analysis : total master points :15938 of which attracted to :
    feature point   : 0
    feature edge    : 0
    nearest surface : 0
    rest            : 15938

--> FOAM Warning : Displacement (-6.68701844848544e-06 -1.00936185392152e-05 -4.10819405049062e-21) at mesh point 402 coord (-0.101057452121358 -0.148931629650889 -5.16643486490005e-18) points through the surrounding patch faces
Smoothing displacement ...
Iteration 0
Iteration 10
Iteration 20
Displacement smoothed in = 0.18 s


Moving mesh ...

Iteration 0
Moving mesh using displacement scaling : min:1  max:1
Checking faces in error :
    non-orthogonality > 65  degrees                        : 0
    faces with face pyramid volume < 1e-13                 : 0
    faces with face-decomposition tet quality < 1e-15      : 0
    faces with concavity > 80  degrees                     : 0
    faces with skewness > 4   (internal) or 20  (boundary) : 0
    faces with interpolation weights (0..1)  < 0.02        : 0
    faces with volume ratio of neighbour cells < 0.01      : 0
    faces with face twist < 0.02                           : 0
    faces on cells with determinant < 0.001                : 0
Successfully moved mesh
Moved mesh in = 0.09 s



Morph iteration 12
-----------------
Calculating patchDisplacement as distance to nearest surface point ...
    non-zone points : attract to nearest of all non-zone surfaces
    zone points     : attract to zone surface only

Wanted displacement : average:7.68279333336963e-06 min:2.64226167402247e-09 max:2.96758322824138e-05
Calculated surface displacement in = 0.01 s


Detecting near surfaces ...
Overriding nearest with intersection of close gaps at 0 out of 16310 points.
Overriding displacement on features :
   implicit features    : false
   explicit features    : true
   multi-patch features : false

Detected 0 baffle edges out of 32243 edges.
Baffle points     : 0 of which attracted to :
    feature point : 0
    feature edge  : 0
    rest          : 0

Initially selected 0 mesh points out of 16310 for reverse attraction.
Selected 0 mesh points out of 16310 for reverse attraction.
Stringing feature edges : changed 0 points
Attraction:
    linear   : max:(1.21099798855995e-05 -1.27950701697271e-05 -2.38807367594907e-05) avg:(-3.8926419710116e-09 -1.96078826827219e-19 -1.15916708615592e-20)
    feature  : max:(0 0 0) avg:(0 0 0)
Feature analysis : total master points :15938 of which attracted to :
    feature point   : 0
    feature edge    : 0
    nearest surface : 0
    rest            : 15938

--> FOAM Warning : Displacement (-2.82339778594341e-06 -4.20111446254247e-06 1.54249771764398e-19) at mesh point 402 coord (-0.101064139139807 -0.148941723269428 -5.17054305895054e-18) points through the surrounding patch faces
Smoothing displacement ...
Iteration 0
Iteration 10
Iteration 20
Displacement smoothed in = 0.18 s


Moving mesh ...

Iteration 0
Moving mesh using displacement scaling : min:1  max:1
Checking faces in error :
    non-orthogonality > 65  degrees                        : 0
    faces with face pyramid volume < 1e-13                 : 0
    faces with face-decomposition tet quality < 1e-15      : 0
    faces with concavity > 80  degrees                     : 0
    faces with skewness > 4   (internal) or 20  (boundary) : 0
    faces with interpolation weights (0..1)  < 0.02        : 0
    faces with volume ratio of neighbour cells < 0.01      : 0
    faces with face twist < 0.02                           : 0
    faces on cells with determinant < 0.001                : 0
Successfully moved mesh
Moved mesh in = 0.09 s



Morph iteration 13
-----------------
Calculating patchDisplacement as distance to nearest surface point ...
    non-zone points : attract to nearest of all non-zone surfaces
    zone points     : attract to zone surface only

Wanted displacement : average:1.89525935149226e-06 min:8.31242231938607e-10 max:7.41017802713892e-06
Calculated surface displacement in = 0 s


Detecting near surfaces ...
Overriding nearest with intersection of close gaps at 0 out of 16310 points.
Overriding displacement on features :
   implicit features    : false
   explicit features    : true
   multi-patch features : false

Detected 0 baffle edges out of 32243 edges.
Baffle points     : 0 of which attracted to :
    feature point : 0
    feature edge  : 0
    rest          : 0

Initially selected 0 mesh points out of 16310 for reverse attraction.
Selected 0 mesh points out of 16310 for reverse attraction.
Stringing feature edges : changed 0 points
Attraction:
    linear   : max:(3.02391142585623e-06 -5.96311948711237e-06 -3.19498107426153e-06) avg:(-3.50883887444538e-10 1.639704427506e-19 1.59181395634087e-19)
    feature  : max:(0 0 0) avg:(0 0 0)
Feature analysis : total master points :15938 of which attracted to :
    feature point   : 0
    feature edge    : 0
    nearest surface : 0
    rest            : 15938

--> FOAM Warning : Displacement (-7.92039594926462e-07 -1.1703020231793e-06 -4.0273010793607e-20) at mesh point 402 coord (-0.101066962537593 -0.148945924383891 -5.01629328718614e-18) points through the surrounding patch faces
Smoothing displacement ...
Iteration 0
Iteration 10
Iteration 20
Displacement smoothed in = 0.17 s


Moving mesh ...

Iteration 0
Moving mesh using displacement scaling : min:1  max:1
Checking faces in error :
    non-orthogonality > 65  degrees                        : 0
    faces with face pyramid volume < 1e-13                 : 0
    faces with face-decomposition tet quality < 1e-15      : 0
    faces with concavity > 80  degrees                     : 0
    faces with skewness > 4   (internal) or 20  (boundary) : 0
    faces with interpolation weights (0..1)  < 0.02        : 0
    faces with volume ratio of neighbour cells < 0.01      : 0
    faces with face twist < 0.02                           : 0
    faces on cells with determinant < 0.001                : 0
Successfully moved mesh
Moved mesh in = 0.1 s



Morph iteration 14
-----------------
Calculating patchDisplacement as distance to nearest surface point ...
    non-zone points : attract to nearest of all non-zone surfaces
    zone points     : attract to zone surface only

Wanted displacement : average:2.42228946073854e-07 min:6.6038527628296e-10 max:9.58178615845269e-07
Calculated surface displacement in = 0 s


Detecting near surfaces ...
Overriding nearest with intersection of close gaps at 0 out of 16310 points.
Overriding displacement on features :
   implicit features    : false
   explicit features    : true
   multi-patch features : false

Detected 0 baffle edges out of 32243 edges.
Baffle points     : 0 of which attracted to :
    feature point : 0
    feature edge  : 0
    rest          : 0

Initially selected 0 mesh points out of 16310 for reverse attraction.
Selected 0 mesh points out of 16310 for reverse attraction.
Stringing feature edges : changed 0 points
Attraction:
    linear   : max:(3.9100912549439e-07 -4.13129408571855e-07 -7.71065636256951e-07) avg:(-5.32768571107813e-13 -9.9427148657599e-20 -2.55778652813747e-21)
    feature  : max:(0 0 0) avg:(0 0 0)
Feature analysis : total master points :15938 of which attracted to :
    feature point   : 0
    feature edge    : 0
    nearest surface : 0
    rest            : 15938

--> FOAM Warning : Displacement (-1.12249888828408e-07 -1.6542659811436e-07 -5.61602468627505e-24) at mesh point 402 coord (-0.101067754577188 -0.148947094685914 -5.05656629797975e-18) points through the surrounding patch faces
Smoothing displacement ...
Iteration 0
Iteration 10
Iteration 20
Displacement smoothed in = 0.16 s


Moving mesh ...

Iteration 0
Moving mesh using displacement scaling : min:1  max:1
Checking faces in error :
    non-orthogonality > 65  degrees                        : 0
    faces with face pyramid volume < 1e-13                 : 0
    faces with face-decomposition tet quality < 1e-15      : 0
    faces with concavity > 80  degrees                     : 0
    faces with skewness > 4   (internal) or 20  (boundary) : 0
    faces with interpolation weights (0..1)  < 0.02        : 0
    faces with volume ratio of neighbour cells < 0.01      : 0
    faces with face twist < 0.02                           : 0
    faces on cells with determinant < 0.001                : 0
Successfully moved mesh
Moved mesh in = 0.08 s


Repatching faces according to nearest surface ...
Repatched 0 faces in = 0.02 s


Edge intersection testing:
    Number of edges             : 650775
    Number of edges to retest   : 173308
    Number of intersected edges : 15936
Merging 4808 sets of faces.

Edge intersection testing:
    Number of edges             : 643903
    Number of edges to retest   : 19428
    Number of intersected edges : 9064

Undo iteration 0
----------------
Checking faces in error :
    non-orthogonality > 65  degrees                        : 0
    faces with face pyramid volume < 1e-13                 : 0
    faces with face-decomposition tet quality < 1e-15      : 0
    faces with concavity > 80  degrees                     : 0
    faces with skewness > 4   (internal) or 20  (boundary) : 0
    faces with interpolation weights (0..1)  < 0.02        : 0
    faces with volume ratio of neighbour cells < 0.01      : 0
    faces with face twist < 0.02                           : 0
    faces on cells with determinant < 0.001                : 0

Merging all points on surface that
- are used by only two boundary faces and
- make an angle with a cosine of more than 0.866025403784439.

Removing 2582 straight edge points ...

Edge intersection testing:
    Number of edges             : 643903
    Number of edges to retest   : 14948
    Number of intersected edges : 9064

Undo iteration 0
----------------
Checking faces in error :
    non-orthogonality > 65  degrees                        : 0
    faces with face pyramid volume < 1e-13                 : 0
    faces with face-decomposition tet quality < 1e-15      : 0
    faces with concavity > 80  degrees                     : 0
    faces with skewness > 4   (internal) or 20  (boundary) : 0
    faces with interpolation weights (0..1)  < 0.02        : 0
    faces with volume ratio of neighbour cells < 0.01      : 0
    faces with face twist < 0.02                           : 0
    faces on cells with determinant < 0.001                : 0
Snapped mesh : cells:207486  faces:643903  points:231379  unbalance:0.0100151335511793
Cells per refinement level:
    0	149383
    1	4419
    2	11564
    3	42120
Writing mesh to time constant
Wrote mesh in = 0.02 s.
Mesh snapped in = 5.3 s.
Layer specification as
- final layer thickness ('finalLayerThickness')
- expansion ratio ('expansionRatio')

Shrinking and layer addition phase
----------------------------------

Using mesh parameters 
{
    maxNonOrtho     65;
    maxBoundarySkewness 20;
    maxInternalSkewness 4;
    maxConcave      80;
    minVol          1e-13;
    minTetQuality   1e-15;
    minArea         -1;
    minTwist        0.02;
    minDeterminant  0.001;
    minFaceWeight   0.02;
    minVolRatio     0.01;
    minTriangleTwist -1;
    minEdgeLength   -1;
    nSmoothScale    4;
    errorReduction  0.75;
}



Merging all faces of a cell
---------------------------
    - which are on the same patch
    - which make an angle < 60 degrees (cos:0.5)
    - as long as the resulting face doesn't become concave by more than 90 degrees
      (0=straight, 180=fully concave)

Merging 0 sets of faces.

No faces merged ...

Merging all points on surface that
- are used by only two boundary faces and
- make an angle with a cosine of more than 0.5.

No straight edges simplified and no points removed ...

Checking mesh manifoldness ...
Outside of mesh is multiply connected across edges or points.
This is not a fatal error but might cause some unexpected behaviour.


Checking initial mesh ...
Checking faces in error :
    non-orthogonality > 65  degrees                        : 0
    faces with face pyramid volume < 1e-13                 : 0
    faces with face-decomposition tet quality < 1e-15      : 0
    faces with concavity > 80  degrees                     : 0
    faces with skewness > 4   (internal) or 20  (boundary) : 0
    faces with interpolation weights (0..1)  < 0.02        : 0
    faces with volume ratio of neighbour cells < 0.01      : 0
    faces with face twist < 0.02                           : 0
    faces on cells with determinant < 0.001                : 0
Detected 0 illegal faces (concave, zero area or negative cell pyramid volume)

Before layer addition : cells:207486  faces:643903  points:231379  unbalance:0.0100151335511793
Ideal layer addition : cells:252806  unbalance:0.455756588055663

Duplicating 0 points on faceZones of type boundary

Handling points with inconsistent layer specification ...
dupNonManifoldPoints : Found : 0 non-manifold points (out of 242794)

Handling points with inconsistent layer specification ...

Handling non-manifold points ...

Checking patch manifoldness ...
Outside of local patch is multiply connected across edges or points at 0 points.
Set displacement to zero for all 0 non-manifold points

Handling feature edges (angle < 60) ...
Set displacement to zero for points on 0 feature edges

Handling cells with warped patch faces ...
Set displacement to zero on 0 warped faces since layer would be > 0.5 of the size of the bounding box.

patch  faces    layers avg thickness[m]
                       near-wall overall
-----  -----    ------ --------- -------
sphere 9064     5      0.00108   0.00978 


Outer iteration : 0
-------------------

Adding in total 0 inter-processor patches to handle extrusion of non-manifold processor boundaries.
Selecting externalDisplacementMeshMover displacementMedialAxis
displacementMedialAxis : Calculating distance to Medial Axis ...
fieldSmoother : Smoothing normals ...
    Iteration 0   residual 0.00301742317728873
displacementMedialAxis : Inserting points on patch inlet1 if angle to nearest layer patch > 30 degrees.
displacementMedialAxis : Inserting points on patch outlet1 if angle to nearest layer patch > 30 degrees.
displacementMedialAxis : Inserting points on patch walls if angle to nearest layer patch > 30 degrees.
fieldSmoother : Smoothing normals in interior ...
    Iteration 0   residual 0.0289810136081112

Layer addition iteration 0
--------------------------

Determining displacement for added points according to pointNormal ...
Detected 0 points with point normal pointing through faces.
Reset displacement at 0 points to average of surrounding points.

displacementMedialAxis : Smoothing using Medial Axis ...
displacementMedialAxis : Reducing layer thickness at 0 nodes where thickness to medial axis distance is large 
displacementMedialAxis : Removing isolated regions ...
- if partially extruded faces make angle < 30
- if exclusively surrounded by non-extruded faces
displacementMedialAxis : Number of isolated points extrusion stopped : 0
fieldSmoother : Smoothing field ...
    Iteration 0   residual 3.07551186629121e-19
displacementMedialAxis : Moving mesh ...
displacementMedialAxis : Iteration 0
Moving mesh using displacement scaling : min:1  max:1
Checking faces in error :
    non-orthogonality > 65  degrees                        : 0
    faces with face pyramid volume < 1e-13                 : 0
    faces with face-decomposition tet quality < 1e-15      : 0
    faces with concavity > 80  degrees                     : 0
    faces with skewness > 4   (internal) or 20  (boundary) : 0
    faces with interpolation weights (0..1)  < 0.02        : 0
    faces with volume ratio of neighbour cells < 0.01      : 0
    faces with face twist < 0.02                           : 0
    faces on cells with determinant < 0.001                : 0
displacementMedialAxis : Successfully moved mesh
displacementMedialAxis : Finished moving mesh ...
truncateDisplacement : Unextruded 0 faces due to non-consecutive vertices being extruded.
truncateDisplacement : Unextruded 0 faces due to stringed edges with inconsistent extrusion.

Setting up information for layer truncation ...
Detected 0 baffles across faceZones of type internal


Checking mesh with layer ...
Checking faces in error :
    non-orthogonality > 65  degrees                        : 0
    faces with face pyramid volume < 1e-13                 : 0
    faces with face-decomposition tet quality < 1e-15      : 0
    faces with concavity > 80  degrees                     : 0
    faces with skewness > 4   (internal) or 20  (boundary) : 0
    faces with interpolation weights (0..1)  < 0.02        : 0
    faces with volume ratio of neighbour cells < 0.01      : 0
    faces with face twist < 0.02                           : 0
    faces on cells with determinant < 0.001                : 0
Detected 0 illegal faces (concave, zero area or negative cell pyramid volume)
Extruding 9064 out of 9064 faces (100%). Removed extrusion at 0 faces.
Added 45320 out of 45320 cells (100%).
Edge intersection testing:
    Number of edges             : 791163
    Number of edges to retest   : 0
    Number of intersected edges : 54384
Mesh with layers : cells:252806  faces:791163  points:288009  unbalance:0.455756588055663

patch  faces        layers        overall thickness
                target   mesh     [m]       [%]
-----  -----    -----    ----     ---       ---
sphere 9064     5        5        0.00978   100     


Doing final balancing
---------------------

Writing 45320 added cells to cellSet addedCells
Writing 36226 faces inside added layer to faceSet layerFaces

Writing fields with layer information:
    nSurfaceLayers    : actual number of layers
    thickness         : overall layer thickness
    thicknessFraction : overall layer thickness (fraction of desired thickness)

Layer mesh : cells:252806  faces:791163  points:288009  unbalance:0.0100234962777782
Cells per refinement level:
    0	149383
    1	4419
    2	11564
    3	87440
Writing mesh to time constant
Wrote mesh in = 0.03 s.
Layers added in = 1.75 s.
Checking final mesh ...
Checking faces in error :
    non-orthogonality > 65  degrees                        : 0
    faces with face pyramid volume < 1e-13                 : 0
    faces with face-decomposition tet quality < 1e-15      : 0
    faces with concavity > 80  degrees                     : 0
    faces with skewness > 4   (internal) or 20  (boundary) : 0
    faces with interpolation weights (0..1)  < 0.02        : 0
    faces with volume ratio of neighbour cells < 0.01      : 0
    faces with face twist < 0.02                           : 0
    faces on cells with determinant < 0.001                : 0
Finished meshing without any errors
Finished meshing in = 12.12 s.
End

Finalising parallel run
/*---------------------------------------------------------------------------*\
| =========                 |                                                 |
| \\      /  F ield         | OpenFOAM: The Open Source CFD Toolbox           |
|  \\    /   O peration     | Version:  2406                                  |
|   \\  /    A nd           | Website:  www.openfoam.com                      |
|    \\/     M anipulation  |                                                 |
\*---------------------------------------------------------------------------*/
Build  : _be01ca78-20240625 OPENFOAM=2406 version=2406
Arch   : "LSB;label=32;scalar=64"
Exec   : redistributePar -reconstruct -constant -parallel
Date   : Feb 25 2025
Time   : 00:08:06
Host   : DESKTOP-D65JE2G
PID    : 999555
I/O    : uncollated
Case   : /home/nkaz/OpenFOAM/nkaz-v2406/foamCases/hsSphere_rcf
nProcs : 8
Hosts  :
(
    (DESKTOP-D65JE2G 8)
)
Pstream initialized with:
    floatTransfer      : false
    maxCommsSize       : 0
    nProcsSimpleSum    : 0
    nonBlockingExchange: 0 (tuning: 0)
    exchange algorithm : 0
    commsType          : nonBlocking
    polling iterations : 0
trapFpe: Floating point exception trapping enabled (FOAM_SIGFPE).
fileModificationChecking : Monitoring run-time modified files using timeStampMaster (fileModificationSkew 5, maxFileModificationPolls 20)
allowSystemOperations : Allowing user-supplied system call operations

// * * * * * * * * * * * * * * * * * * * * * * * * * * * * * * * * * * * * * //
sigFpe : Disabling floating point exception trapping
Reconstructing case (like reconstructParMesh)

Switching to exact matching for "processors8" processor directories

--> FOAM Warning : 
    Added implicit -overwrite for decompose/reconstruct modes

Create time

Create undecomposed database


Reconstructing mesh and addressing


Reconstructing mesh:

Time = constant

Per processor availability of "faces" file in "constant/polyMesh"
    (1 1 1 1 1 1 1 1)

I/O    : uncollated
Per processor availability of "faceLabels" file in "constant/finite-area/faMesh"
    (0 0 0 0 0 0 0 0)

I/O    : uncollated
Checking "hsSphere_rcf" for undecomposed volume and area meshes...
    volume mesh [1] : "constant"
    area   mesh [0] : "constant"

No undecomposed mesh. Creating from: "constant"
    Boundary definition OK.

Reconstructing mesh

Reading hexRef8 data : cellLevel
Reading hexRef8 data : pointLevel
Reading hexRef8 data : level0Edge
After distribution:

Processor 0
    Number of cells = 252806
    Number of processor patches = 0
    Number of processor faces = 0
    Number of boundary faces = 27304

Processor 1 (empty)

Processor 2 (empty)

Processor 3 (empty)

Processor 4 (empty)

Processor 5 (empty)

Processor 6 (empty)

Processor 7 (empty)

Number of processor faces = 0
Max number of cells = 252806
Max number of processor patches = 0
Max number of faces between processors = 0

Setting caseName to "hsSphere_rcf" to write reconstructed mesh (and fields).
Restoring caseName
Written redistributed mesh to "constant"

Writing (reconstruct) procAddressing files to constant/polyMesh
Setting caseName to "hsSphere_rcf" to write reconstructed refinement data.
Restoring caseName

Reconstructing fields

Time = constant

Reading undecomposed mesh (on master)
    Boundary definition OK.
Reading local, decomposed mesh
    Boundary definition OK.
Reading (cell|face|point|boundary)ProcAddressing from constant/polyMesh

Time = constant

End

Finalising parallel run
DECOMPOSE_START_TIME: Tue Feb 25 00:08:07 EST 2025
/*---------------------------------------------------------------------------*\
| =========                 |                                                 |
| \\      /  F ield         | OpenFOAM: The Open Source CFD Toolbox           |
|  \\    /   O peration     | Version:  2406                                  |
[...]
diagonal:  Solving for rhoUx, Initial residual = 0, Final residual = 0, No Iterations 0
diagonal:  Solving for rhoUy, Initial residual = 0, Final residual = 0, No Iterations 0
diagonal:  Solving for rhoUz, Initial residual = 0, Final residual = 0, No Iterations 0
smoothSolver:  Solving for Ux, Initial residual = 2.69878138531785e-08, Final residual = 3.56803445643474e-16, No Iterations 3
smoothSolver:  Solving for Uy, Initial residual = 1.25686232126549e-07, Final residual = 7.66200633583959e-17, No Iterations 3
smoothSolver:  Solving for Uz, Initial residual = 1.25258517352881e-07, Final residual = 7.66276727827712e-17, No Iterations 3
diagonal:  Solving for rhoE, Initial residual = 0, Final residual = 0, No Iterations 0
smoothSolver:  Solving for e, Initial residual = 1.46521776995688e-08, Final residual = 3.10685162118395e-16, No Iterations 3
ExecutionTime = 350 s  ClockTime = 358 s

 max velocityGradientMag max(velocityGradientMag) [1 -2 -2 0 0 0 0] 3256259.51530106
Mean and max Courant Numbers = 0.0131402898752384 0.233331129817979
Flow time scale min/max = 1.28572642764825e-06, 1.27153965432419e-05
Time = 0.000687

diagonal:  Solving for rho, Initial residual = 0, Final residual = 0, No Iterations 0
diagonal:  Solving for rhoUx, Initial residual = 0, Final residual = 0, No Iterations 0
diagonal:  Solving for rhoUy, Initial residual = 0, Final residual = 0, No Iterations 0
diagonal:  Solving for rhoUz, Initial residual = 0, Final residual = 0, No Iterations 0
smoothSolver:  Solving for Ux, Initial residual = 2.69942068296636e-08, Final residual = 3.55559541687707e-16, No Iterations 3
smoothSolver:  Solving for Uy, Initial residual = 1.25616482658304e-07, Final residual = 7.79577049134505e-17, No Iterations 3
smoothSolver:  Solving for Uz, Initial residual = 1.25280615117168e-07, Final residual = 7.70638957909291e-17, No Iterations 3
diagonal:  Solving for rhoE, Initial residual = 0, Final residual = 0, No Iterations 0
smoothSolver:  Solving for e, Initial residual = 1.46588521362198e-08, Final residual = 3.10317925329275e-16, No Iterations 3
ExecutionTime = 350.28 s  ClockTime = 359 s

 max velocityGradientMag max(velocityGradientMag) [1 -2 -2 0 0 0 0] 3256224.46677979
Mean and max Courant Numbers = 0.0131405165089338 0.231782060046515
Flow time scale min/max = 1.29431932712909e-06, 1.26437562681034e-05
Time = 0.0006876

diagonal:  Solving for rho, Initial residual = 0, Final residual = 0, No Iterations 0
diagonal:  Solving for rhoUx, Initial residual = 0, Final residual = 0, No Iterations 0
diagonal:  Solving for rhoUy, Initial residual = 0, Final residual = 0, No Iterations 0
diagonal:  Solving for rhoUz, Initial residual = 0, Final residual = 0, No Iterations 0
smoothSolver:  Solving for Ux, Initial residual = 2.70098546944555e-08, Final residual = 3.56799406009231e-16, No Iterations 3
smoothSolver:  Solving for Uy, Initial residual = 1.25722631363886e-07, Final residual = 7.63092258985561e-17, No Iterations 3
smoothSolver:  Solving for Uz, Initial residual = 1.25277826751014e-07, Final residual = 7.75233607368799e-17, No Iterations 3
diagonal:  Solving for rhoE, Initial residual = 0, Final residual = 0, No Iterations 0
smoothSolver:  Solving for e, Initial residual = 1.46708723922191e-08, Final residual = 3.10697454793641e-16, No Iterations 3
ExecutionTime = 350.56 s  ClockTime = 359 s

 max velocityGradientMag max(velocityGradientMag) [1 -2 -2 0 0 0 0] 3256189.44145733
Mean and max Courant Numbers = 0.0131407408960491 0.230056201934078
Flow time scale min/max = 1.30402917842643e-06, 1.27999601827487e-05
Time = 0.0006882

diagonal:  Solving for rho, Initial residual = 0, Final residual = 0, No Iterations 0
diagonal:  Solving for rhoUx, Initial residual = 0, Final residual = 0, No Iterations 0
diagonal:  Solving for rhoUy, Initial residual = 0, Final residual = 0, No Iterations 0
diagonal:  Solving for rhoUz, Initial residual = 0, Final residual = 0, No Iterations 0
smoothSolver:  Solving for Ux, Initial residual = 2.71041902831716e-08, Final residual = 3.56279379820794e-16, No Iterations 3
smoothSolver:  Solving for Uy, Initial residual = 1.26142700683077e-07, Final residual = 7.70020399541022e-17, No Iterations 3
smoothSolver:  Solving for Uz, Initial residual = 1.25741467134679e-07, Final residual = 7.66825479077196e-17, No Iterations 3
diagonal:  Solving for rhoE, Initial residual = 0, Final residual = 0, No Iterations 0
smoothSolver:  Solving for e, Initial residual = 1.4718604019468e-08, Final residual = 3.106674766882e-16, No Iterations 3
ExecutionTime = 350.86 s  ClockTime = 359 s


    From virtual bool Foam::regIOobject::readIfModified()
    in file db/regIOobject/regIOobjectRead.C at line 266
        Re-reading object controlDict from file "/home/nkaz/OpenFOAM/nkaz-v2406/foamCases/hsSphere_rcf/system/controlDict"
 max velocityGradientMag max(velocityGradientMag) [1 -2 -2 0 0 0 0] 3256154.46080101
Mean and max Courant Numbers = 0.0131409682366856 0.230278357888186
Flow time scale min/max = 1.30277114510981e-06, 1.29799711082585e-05
Time = 0.0006888

diagonal:  Solving for rho, Initial residual = 0, Final residual = 0, No Iterations 0
diagonal:  Solving for rhoUx, Initial residual = 0, Final residual = 0, No Iterations 0
diagonal:  Solving for rhoUy, Initial residual = 0, Final residual = 0, No Iterations 0
diagonal:  Solving for rhoUz, Initial residual = 0, Final residual = 0, No Iterations 0
smoothSolver:  Solving for Ux, Initial residual = 2.72252421258724e-08, Final residual = 3.55808068237503e-16, No Iterations 3
smoothSolver:  Solving for Uy, Initial residual = 1.26670259810604e-07, Final residual = 7.78642356316107e-17, No Iterations 3
smoothSolver:  Solving for Uz, Initial residual = 1.26126630106015e-07, Final residual = 7.69231747427115e-17, No Iterations 3
diagonal:  Solving for rhoE, Initial residual = 0, Final residual = 0, No Iterations 0
smoothSolver:  Solving for e, Initial residual = 1.48009519120985e-08, Final residual = 3.09969117978232e-16, No Iterations 3
ExecutionTime = 351.14 s  ClockTime = 359 s

 max velocityGradientMag max(velocityGradientMag) [1 -2 -2 0 0 0 0] 3256119.54019711
End

Finalising parallel run
RECONSTRUCT_START_TIME: Tue Feb 25 00:14:09 EST 2025
/*---------------------------------------------------------------------------*\
| =========                 |                                                 |
| \\      /  F ield         | OpenFOAM: The Open Source CFD Toolbox           |
|  \\    /   O peration     | Version:  2406                                  |
|   \\  /    A nd           | Website:  www.openfoam.com                      |
|    \\/     M anipulation  |                                                 |
\*---------------------------------------------------------------------------*/
Build  : _be01ca78-20240625 OPENFOAM=2406 version=2406
Arch   : "LSB;label=32;scalar=64"
Exec   : redistributePar -reconstruct -constant -parallel
Date   : Feb 25 2025
Time   : 00:14:09
Host   : DESKTOP-D65JE2G
PID    : 1022624
I/O    : uncollated
Case   : /home/nkaz/OpenFOAM/nkaz-v2406/foamCases/hsSphere_rcf
nProcs : 8
Hosts  :
(
    (DESKTOP-D65JE2G 8)
)
Pstream initialized with:
    floatTransfer      : false
    maxCommsSize       : 0
    nProcsSimpleSum    : 0
    nonBlockingExchange: 0 (tuning: 0)
    exchange algorithm : 0
    commsType          : nonBlocking
    polling iterations : 0
trapFpe: Floating point exception trapping enabled (FOAM_SIGFPE).
fileModificationChecking : Monitoring run-time modified files using timeStampMaster (fileModificationSkew 5, maxFileModificationPolls 20)
allowSystemOperations : Allowing user-supplied system call operations

// * * * * * * * * * * * * * * * * * * * * * * * * * * * * * * * * * * * * * //
sigFpe : Disabling floating point exception trapping
Reconstructing case (like reconstructParMesh)

Switching to exact matching for "processors8" processor directories

--> FOAM Warning : 
    Added implicit -overwrite for decompose/reconstruct modes

Create time

Create undecomposed database


Reconstructing mesh and addressing


Reconstructing mesh:

Time = constant

Per processor availability of "faces" file in "constant/polyMesh"
    (1 1 1 1 1 1 1 1)

I/O    : uncollated
Per processor availability of "faceLabels" file in "constant/finite-area/faMesh"
    (0 0 0 0 0 0 0 0)

I/O    : uncollated
Checking "hsSphere_rcf" for undecomposed volume and area meshes...
    volume mesh [1] : "constant"
    area   mesh [0] : "constant"

Time = 4.98e-05

Per processor availability of "faces" file in "constant/polyMesh"
    (1 1 1 1 1 1 1 1)

Per processor availability of "faceLabels" file in "constant/finite-area/faMesh"
    (0 0 0 0 0 0 0 0)

Checking "hsSphere_rcf" for undecomposed volume and area meshes...
    volume mesh [1] : "constant"
    area   mesh [0] : "constant"

Time = 0.0001002

Per processor availability of "faces" file in "constant/polyMesh"
    (1 1 1 1 1 1 1 1)

Per processor availability of "faceLabels" file in "constant/finite-area/faMesh"
    (0 0 0 0 0 0 0 0)

Checking "hsSphere_rcf" for undecomposed volume and area meshes...
    volume mesh [1] : "constant"
    area   mesh [0] : "constant"

Time = 0.00015

Per processor availability of "faces" file in "constant/polyMesh"
    (1 1 1 1 1 1 1 1)

Per processor availability of "faceLabels" file in "constant/finite-area/faMesh"
    (0 0 0 0 0 0 0 0)

Checking "hsSphere_rcf" for undecomposed volume and area meshes...
    volume mesh [1] : "constant"
    area   mesh [0] : "constant"

Time = 0.0001998

Per processor availability of "faces" file in "constant/polyMesh"
    (1 1 1 1 1 1 1 1)

Per processor availability of "faceLabels" file in "constant/finite-area/faMesh"
    (0 0 0 0 0 0 0 0)

Checking "hsSphere_rcf" for undecomposed volume and area meshes...
    volume mesh [1] : "constant"
    area   mesh [0] : "constant"

Time = 0.0002502

Per processor availability of "faces" file in "constant/polyMesh"
    (1 1 1 1 1 1 1 1)

Per processor availability of "faceLabels" file in "constant/finite-area/faMesh"
    (0 0 0 0 0 0 0 0)

Checking "hsSphere_rcf" for undecomposed volume and area meshes...
    volume mesh [1] : "constant"
    area   mesh [0] : "constant"

Time = 0.0003

Per processor availability of "faces" file in "constant/polyMesh"
    (1 1 1 1 1 1 1 1)

Per processor availability of "faceLabels" file in "constant/finite-area/faMesh"
    (0 0 0 0 0 0 0 0)

Checking "hsSphere_rcf" for undecomposed volume and area meshes...
    volume mesh [1] : "constant"
    area   mesh [0] : "constant"

Time = 0.0003498

Per processor availability of "faces" file in "constant/polyMesh"
    (1 1 1 1 1 1 1 1)

Per processor availability of "faceLabels" file in "constant/finite-area/faMesh"
    (0 0 0 0 0 0 0 0)

Checking "hsSphere_rcf" for undecomposed volume and area meshes...
    volume mesh [1] : "constant"
    area   mesh [0] : "constant"

Time = 0.0004002

Per processor availability of "faces" file in "constant/polyMesh"
    (1 1 1 1 1 1 1 1)

Per processor availability of "faceLabels" file in "constant/finite-area/faMesh"
    (0 0 0 0 0 0 0 0)

Checking "hsSphere_rcf" for undecomposed volume and area meshes...
    volume mesh [1] : "constant"
    area   mesh [0] : "constant"

Time = 0.00045

Per processor availability of "faces" file in "constant/polyMesh"
    (1 1 1 1 1 1 1 1)

Per processor availability of "faceLabels" file in "constant/finite-area/faMesh"
    (0 0 0 0 0 0 0 0)

Checking "hsSphere_rcf" for undecomposed volume and area meshes...
    volume mesh [1] : "constant"
    area   mesh [0] : "constant"

Time = 0.0004998

Per processor availability of "faces" file in "constant/polyMesh"
    (1 1 1 1 1 1 1 1)

Per processor availability of "faceLabels" file in "constant/finite-area/faMesh"
    (0 0 0 0 0 0 0 0)

Checking "hsSphere_rcf" for undecomposed volume and area meshes...
    volume mesh [1] : "constant"
    area   mesh [0] : "constant"

Time = 0.0005502

Per processor availability of "faces" file in "constant/polyMesh"
    (1 1 1 1 1 1 1 1)

Per processor availability of "faceLabels" file in "constant/finite-area/faMesh"
    (0 0 0 0 0 0 0 0)

Checking "hsSphere_rcf" for undecomposed volume and area meshes...
    volume mesh [1] : "constant"
    area   mesh [0] : "constant"

Time = 0.0006

Per processor availability of "faces" file in "constant/polyMesh"
    (1 1 1 1 1 1 1 1)

Per processor availability of "faceLabels" file in "constant/finite-area/faMesh"
    (0 0 0 0 0 0 0 0)

Checking "hsSphere_rcf" for undecomposed volume and area meshes...
    volume mesh [1] : "constant"
    area   mesh [0] : "constant"

Time = 0.0006498

Per processor availability of "faces" file in "constant/polyMesh"
    (1 1 1 1 1 1 1 1)

Per processor availability of "faceLabels" file in "constant/finite-area/faMesh"
    (0 0 0 0 0 0 0 0)

Checking "hsSphere_rcf" for undecomposed volume and area meshes...
    volume mesh [1] : "constant"
    area   mesh [0] : "constant"

Time = 0.0006888

Per processor availability of "faces" file in "constant/polyMesh"
    (1 1 1 1 1 1 1 1)

Per processor availability of "faceLabels" file in "constant/finite-area/faMesh"
    (0 0 0 0 0 0 0 0)

Checking "hsSphere_rcf" for undecomposed volume and area meshes...
    volume mesh [1] : "constant"
    area   mesh [0] : "constant"


Reconstructing fields

Time = constant

Reading undecomposed mesh (on master)
    Boundary definition OK.
Reading local, decomposed mesh
    Boundary definition OK.
Reading (cell|face|point|boundary)ProcAddressing from constant/polyMesh

Time = constant

Time = 4.98e-05

    Reconstructing volScalarFields

        T
        cellLevel
        p
        rDeltaT
        rho
        velocityGradientMag

    Reconstructing volVectorFields

        U

Detected additional non-decomposed files in "/home/nkaz/OpenFOAM/nkaz-v2406/foamCases/hsSphere_rcf/processor0/4.98e-05/uniform"
Detected additional non-decomposed files in "/home/nkaz/OpenFOAM/nkaz-v2406/foamCases/hsSphere_rcf/processor0/4.98e-05/uniform"
Time = 0.0001002

    Reconstructing volScalarFields

        T
        cellLevel
        p
        rDeltaT
        rho
        velocityGradientMag

    Reconstructing volVectorFields

        U

Detected additional non-decomposed files in "/home/nkaz/OpenFOAM/nkaz-v2406/foamCases/hsSphere_rcf/processor0/0.0001002/uniform"
Detected additional non-decomposed files in "/home/nkaz/OpenFOAM/nkaz-v2406/foamCases/hsSphere_rcf/processor0/0.0001002/uniform"
Time = 0.00015

    Reconstructing volScalarFields

        T
        cellLevel
        p
        rDeltaT
        rho
        velocityGradientMag

    Reconstructing volVectorFields

        U

Detected additional non-decomposed files in "/home/nkaz/OpenFOAM/nkaz-v2406/foamCases/hsSphere_rcf/processor0/0.00015/uniform"
Detected additional non-decomposed files in "/home/nkaz/OpenFOAM/nkaz-v2406/foamCases/hsSphere_rcf/processor0/0.00015/uniform"
Time = 0.0001998

    Reconstructing volScalarFields

        T
        cellLevel
        p
        rDeltaT
        rho
        velocityGradientMag

    Reconstructing volVectorFields

        U

Detected additional non-decomposed files in "/home/nkaz/OpenFOAM/nkaz-v2406/foamCases/hsSphere_rcf/processor0/0.0001998/uniform"
Detected additional non-decomposed files in "/home/nkaz/OpenFOAM/nkaz-v2406/foamCases/hsSphere_rcf/processor0/0.0001998/uniform"
Time = 0.0002502

    Reconstructing volScalarFields

        T
        cellLevel
        p
        rDeltaT
        rho
        velocityGradientMag

    Reconstructing volVectorFields

        U

Detected additional non-decomposed files in "/home/nkaz/OpenFOAM/nkaz-v2406/foamCases/hsSphere_rcf/processor0/0.0002502/uniform"
Detected additional non-decomposed files in "/home/nkaz/OpenFOAM/nkaz-v2406/foamCases/hsSphere_rcf/processor0/0.0002502/uniform"
Time = 0.0003

    Reconstructing volScalarFields

        T
        cellLevel
        p
        rDeltaT
        rho
        velocityGradientMag

    Reconstructing volVectorFields

        U

Detected additional non-decomposed files in "/home/nkaz/OpenFOAM/nkaz-v2406/foamCases/hsSphere_rcf/processor0/0.0003/uniform"
Detected additional non-decomposed files in "/home/nkaz/OpenFOAM/nkaz-v2406/foamCases/hsSphere_rcf/processor0/0.0003/uniform"
Time = 0.0003498

    Reconstructing volScalarFields

        T
        cellLevel
        p
        rDeltaT
        rho
        velocityGradientMag

    Reconstructing volVectorFields

        U

Detected additional non-decomposed files in "/home/nkaz/OpenFOAM/nkaz-v2406/foamCases/hsSphere_rcf/processor0/0.0003498/uniform"
Detected additional non-decomposed files in "/home/nkaz/OpenFOAM/nkaz-v2406/foamCases/hsSphere_rcf/processor0/0.0003498/uniform"
Time = 0.0004002

    Reconstructing volScalarFields

        T
        cellLevel
        p
        rDeltaT
        rho
        velocityGradientMag

    Reconstructing volVectorFields

        U

Detected additional non-decomposed files in "/home/nkaz/OpenFOAM/nkaz-v2406/foamCases/hsSphere_rcf/processor0/0.0004002/uniform"
Detected additional non-decomposed files in "/home/nkaz/OpenFOAM/nkaz-v2406/foamCases/hsSphere_rcf/processor0/0.0004002/uniform"
Time = 0.00045

    Reconstructing volScalarFields

        T
        cellLevel
        p
        rDeltaT
        rho
        velocityGradientMag

    Reconstructing volVectorFields

        U

Detected additional non-decomposed files in "/home/nkaz/OpenFOAM/nkaz-v2406/foamCases/hsSphere_rcf/processor0/0.00045/uniform"
Detected additional non-decomposed files in "/home/nkaz/OpenFOAM/nkaz-v2406/foamCases/hsSphere_rcf/processor0/0.00045/uniform"
Time = 0.0004998

    Reconstructing volScalarFields

        T
        cellLevel
        p
        rDeltaT
        rho
        velocityGradientMag

    Reconstructing volVectorFields

        U

Detected additional non-decomposed files in "/home/nkaz/OpenFOAM/nkaz-v2406/foamCases/hsSphere_rcf/processor0/0.0004998/uniform"
Detected additional non-decomposed files in "/home/nkaz/OpenFOAM/nkaz-v2406/foamCases/hsSphere_rcf/processor0/0.0004998/uniform"
Time = 0.0005502

    Reconstructing volScalarFields

        T
        cellLevel
        p
        rDeltaT
        rho
        velocityGradientMag

    Reconstructing volVectorFields

        U

Detected additional non-decomposed files in "/home/nkaz/OpenFOAM/nkaz-v2406/foamCases/hsSphere_rcf/processor0/0.0005502/uniform"
Detected additional non-decomposed files in "/home/nkaz/OpenFOAM/nkaz-v2406/foamCases/hsSphere_rcf/processor0/0.0005502/uniform"
Time = 0.0006

    Reconstructing volScalarFields

        T
        cellLevel
        p
        rDeltaT
        rho
        velocityGradientMag

    Reconstructing volVectorFields

        U

Detected additional non-decomposed files in "/home/nkaz/OpenFOAM/nkaz-v2406/foamCases/hsSphere_rcf/processor0/0.0006/uniform"
Detected additional non-decomposed files in "/home/nkaz/OpenFOAM/nkaz-v2406/foamCases/hsSphere_rcf/processor0/0.0006/uniform"
Time = 0.0006498

    Reconstructing volScalarFields

        T
        cellLevel
        p
        rDeltaT
        rho
        velocityGradientMag

    Reconstructing volVectorFields

        U

Detected additional non-decomposed files in "/home/nkaz/OpenFOAM/nkaz-v2406/foamCases/hsSphere_rcf/processor0/0.0006498/uniform"
Detected additional non-decomposed files in "/home/nkaz/OpenFOAM/nkaz-v2406/foamCases/hsSphere_rcf/processor0/0.0006498/uniform"
Time = 0.0006888

    Reconstructing volScalarFields

        T
        cellLevel
        p
        rDeltaT
        rho
        velocityGradientMag

    Reconstructing volVectorFields

        U

Detected additional non-decomposed files in "/home/nkaz/OpenFOAM/nkaz-v2406/foamCases/hsSphere_rcf/processor0/0.0006888/uniform"
Detected additional non-decomposed files in "/home/nkaz/OpenFOAM/nkaz-v2406/foamCases/hsSphere_rcf/processor0/0.0006888/uniform"
End

Finalising parallel run
RECONSTRUCT_END_TIME: Tue Feb 25 00:14:10 EST 2025
