/*---------------------------------------------------------------------------*\
  =========                 |
  \\      /  F ield         | OpenFOAM: The Open Source CFD Toolbox
   \\    /   O peration     | Website:  https://openfoam.org
    \\  /    A nd           | Version:  12
     \\/     M anipulation  |
\*---------------------------------------------------------------------------*/
Build  : 12-86e126a7bc4d
Exec   : renumberMesh -overwrite
Date   : Mar 03 2025
Time   : 18:14:09
Host   : "DESKTOP-D65JE2G"
PID    : 134795
I/O    : uncollated
Case   : /home/nkaz/OpenFOAM/nkaz-v2406/foamCases/Foundation/v12/test
nProcs : 1
sigFpe : Enabling floating point exception trapping (FOAM_SIGFPE).
fileModificationChecking : Monitoring run-time modified files using timeStampMaster (fileModificationSkew 10)
allowSystemOperations : Allowing user-supplied system call operations

// * * * * * * * * * * * * * * * * * * * * * * * * * * * * * * * * * * * * * //
Create time

Create mesh for time = 0

Mesh size: 54491
Before renumbering :
    band           : 53747
    profile        : 2.3592752e+08

Using default renumberMethod.

Selecting renumberMethod CuthillMcKee

Reading geometric fields

Reading volScalarField alphat
Reading volScalarField nut
Reading volScalarField p
Reading volScalarField T
Reading volScalarField k
Reading volScalarField omega
Reading volScalarField cellLevel
Reading volVectorField U
Reading pointScalarField pointLevel

After renumbering :
    band           : 1181
    profile        : 36579454

Writing mesh to "constant"

End

