/*---------------------------------------------------------------------------*\
  =========                 |
  \\      /  F ield         | OpenFOAM: The Open Source CFD Toolbox
   \\    /   O peration     | Website:  https://openfoam.org
    \\  /    A nd           | Version:  12
     \\/     M anipulation  |
\*---------------------------------------------------------------------------*/
Build  : 12-86e126a7bc4d
Exec   : foamRun -parallel
Date   : Mar 03 2025
Time   : 18:07:24
Host   : "DESKTOP-D65JE2G"
PID    : 128906
I/O    : uncollated
Case   : /home/nkaz/OpenFOAM/nkaz-v2406/foamCases/Foundation/v12/test
nProcs : 8
Slaves : 
7
(
"DESKTOP-D65JE2G.128907"
"DESKTOP-D65JE2G.128908"
"DESKTOP-D65JE2G.128909"
"DESKTOP-D65JE2G.128910"
"DESKTOP-D65JE2G.128911"
"DESKTOP-D65JE2G.128912"
"DESKTOP-D65JE2G.128913"
)

Pstream initialised with:
    floatTransfer      : false
    nProcsSimpleSum    : 0
    commsType          : nonBlocking
    polling iterations : 0
sigFpe : Enabling floating point exception trapping (FOAM_SIGFPE).
fileModificationChecking : Monitoring run-time modified files using timeStampMaster (fileModificationSkew 10)
allowSystemOperations : Allowing user-supplied system call operations

// * * * * * * * * * * * * * * * * * * * * * * * * * * * * * * * * * * * * * //
Create time

Create mesh for time = 0

Selecting fvMeshTopoChanger refiner
Selecting fvMeshDistributor distributor
Selecting distributor simple
Selecting solver shockFluid
Selecting thermodynamics package 
{
    type            hePsiThermo;
    mixture         pureMixture;
    transport       sutherland;
    thermo          janaf;
    equationOfState perfectGas;
    specie          specie;
    energy          sensibleInternalEnergy;
}

Selecting turbulence model type RAS
Selecting RAS turbulence model kOmegaSST
Selecting thermophysical transport type RAS
Selecting default RAS thermophysical transport model unityLewisEddyDiffusivity
Selecting patchDistMethod meshWave
Creating fvConstraints from "system/fvConstraints"

Selecting finite volume constraint type limitTemperature
    Name: limitTemperature
    - selecting all cells
    - selected 54491 cell(s) with volume 4.5569295
Courant Number mean: 0.0013079672 max: 0.01028902

PIMPLE: No convergence criteria found


PIMPLE: Operating solver in transient mode with 1 outer corrector
PIMPLE: Operating solver in PISO mode



Starting time loop

Courant Number mean: 0.0013079411 max: 0.010288815
deltaT = 7.199424e-08
Time = 7.19942e-08s

diagonal:  Solving for rho, Initial residual = 0, Final residual = 0, No Iterations 0
smoothSolver:  Solving for Ux, Initial residual = 0.99999985, Final residual = 3.1302749e-08, No Iterations 1002
smoothSolver:  Solving for Uy, Initial residual = 1, Final residual = 9.8117665e-13, No Iterations 6
smoothSolver:  Solving for Uz, Initial residual = 1, Final residual = 9.8117972e-13, No Iterations 6
smoothSolver:  Solving for e, Initial residual = 0.99999996, Final residual = 4.4780473e-11, No Iterations 6
smoothSolver:  Solving for omega, Initial residual = 1.6266725e-05, Final residual = 1.0859604e-11, No Iterations 3
smoothSolver:  Solving for k, Initial residual = 1, Final residual = 1.2112467e-11, No Iterations 6
ExecutionTime = 0.424724 s  ClockTime = 1 s

Courant Number mean: 0.0015694351 max: 0.012345837
deltaT = 8.6386869e-08
Time = 1.58381e-07s

diagonal:  Solving for rho, Initial residual = 0, Final residual = 0, No Iterations 0
smoothSolver:  Solving for Ux, Initial residual = 0.0064704285, Final residual = 1.2101927e-10, No Iterations 6
smoothSolver:  Solving for Uy, Initial residual = 0.97210859, Final residual = 4.9560997e-14, No Iterations 6
smoothSolver:  Solving for Uz, Initial residual = 0.96598491, Final residual = 6.0370076e-14, No Iterations 6
smoothSolver:  Solving for e, Initial residual = 0.0023795018, Final residual = 4.2260892e-10, No Iterations 3
smoothSolver:  Solving for omega, Initial residual = 0.00016457226, Final residual = 4.0304722e-12, No Iterations 3
smoothSolver:  Solving for k, Initial residual = 0.023718346, Final residual = 3.1824911e-12, No Iterations 6
ExecutionTime = 0.485138 s  ClockTime = 1 s

Courant Number mean: 0.0018888583 max: 0.014861117
deltaT = 1.0366424e-07
Time = 2.62045e-07s

diagonal:  Solving for rho, Initial residual = 0, Final residual = 0, No Iterations 0
smoothSolver:  Solving for Ux, Initial residual = 0.0057495227, Final residual = 8.0097374e-11, No Iterations 6
smoothSolver:  Solving for Uy, Initial residual = 0.022746429, Final residual = 5.8630117e-14, No Iterations 6
smoothSolver:  Solving for Uz, Initial residual = 0.024239593, Final residual = 6.3533954e-14, No Iterations 6
smoothSolver:  Solving for e, Initial residual = 0.0016360351, Final residual = 4.6819542e-10, No Iterations 3
smoothSolver:  Solving for omega, Initial residual = 0.00019364878, Final residual = 6.7585045e-12, No Iterations 3
smoothSolver:  Solving for k, Initial residual = 0.018148405, Final residual = 1.2026104e-12, No Iterations 6
ExecutionTime = 0.547195 s  ClockTime = 1 s

Courant Number mean: 0.0022666317 max: 0.017903024
deltaT = 1.2439193e-07
Time = 3.86437e-07s

diagonal:  Solving for rho, Initial residual = 0, Final residual = 0, No Iterations 0
smoothSolver:  Solving for Ux, Initial residual = 0.0054041726, Final residual = 8.4614978e-11, No Iterations 6
smoothSolver:  Solving for Uy, Initial residual = 0.014181937, Final residual = 1.9227246e-13, No Iterations 6
smoothSolver:  Solving for Uz, Initial residual = 0.014643061, Final residual = 1.9838372e-13, No Iterations 6
smoothSolver:  Solving for e, Initial residual = 0.0013039654, Final residual = 6.5188446e-10, No Iterations 3
smoothSolver:  Solving for omega, Initial residual = 0.00022473388, Final residual = 1.284424e-11, No Iterations 3
smoothSolver:  Solving for k, Initial residual = 0.015283782, Final residual = 1.2096839e-12, No Iterations 6
ExecutionTime = 0.609744 s  ClockTime = 1 s

Courant Number mean: 0.0027198476 max: 0.02158617
deltaT = 1.4926289e-07
Time = 5.357e-07s

diagonal:  Solving for rho, Initial residual = 0, Final residual = 0, No Iterations 0
smoothSolver:  Solving for Ux, Initial residual = 0.00514677, Final residual = 2.0147912e-11, No Iterations 6
smoothSolver:  Solving for Uy, Initial residual = 0.010915823, Final residual = 5.7247659e-13, No Iterations 6
smoothSolver:  Solving for Uz, Initial residual = 0.01109135, Final residual = 5.8087704e-13, No Iterations 6
smoothSolver:  Solving for e, Initial residual = 0.0011228159, Final residual = 7.9701788e-10, No Iterations 3
smoothSolver:  Solving for omega, Initial residual = 0.00026717741, Final residual = 1.7218755e-11, No Iterations 3
smoothSolver:  Solving for k, Initial residual = 0.01353102, Final residual = 9.4875447e-13, No Iterations 6
ExecutionTime = 0.671048 s  ClockTime = 1 s

Courant Number mean: 0.0032636581 max: 0.026056233
deltaT = 1.7911547e-07
Time = 7.14816e-07s

diagonal:  Solving for rho, Initial residual = 0, Final residual = 0, No Iterations 0
smoothSolver:  Solving for Ux, Initial residual = 0.004885034, Final residual = 1.0386137e-11, No Iterations 6
smoothSolver:  Solving for Uy, Initial residual = 0.0092286172, Final residual = 1.7693349e-12, No Iterations 6
smoothSolver:  Solving for Uz, Initial residual = 0.0093099395, Final residual = 1.7830602e-12, No Iterations 6
smoothSolver:  Solving for e, Initial residual = 0.0010147762, Final residual = 9.8372437e-13, No Iterations 6
smoothSolver:  Solving for omega, Initial residual = 0.00031771121, Final residual = 2.8343622e-11, No Iterations 3
smoothSolver:  Solving for k, Initial residual = 0.012374248, Final residual = 6.3418661e-13, No Iterations 6
ExecutionTime = 0.734323 s  ClockTime = 1 s

Courant Number mean: 0.0039163949 max: 0.031498289
deltaT = 2.1490004e-07
Time = 9.29716e-07s

diagonal:  Solving for rho, Initial residual = 0, Final residual = 0, No Iterations 0
smoothSolver:  Solving for Ux, Initial residual = 0.0045913729, Final residual = 1.1575067e-11, No Iterations 6
smoothSolver:  Solving for Uy, Initial residual = 0.0083767243, Final residual = 6.0578472e-12, No Iterations 6
smoothSolver:  Solving for Uz, Initial residual = 0.0084212859, Final residual = 6.0851597e-12, No Iterations 6
smoothSolver:  Solving for e, Initial residual = 0.00094933325, Final residual = 5.0076078e-13, No Iterations 6
smoothSolver:  Solving for omega, Initial residual = 0.00037733297, Final residual = 4.9683721e-11, No Iterations 3
smoothSolver:  Solving for k, Initial residual = 0.011570889, Final residual = 1.0702779e-12, No Iterations 6
ExecutionTime = 0.805856 s  ClockTime = 1 s

Courant Number mean: 0.0046988393 max: 0.038138524
deltaT = 2.5782459e-07
Time = 1.18754e-06s

diagonal:  Solving for rho, Initial residual = 0, Final residual = 0, No Iterations 0
smoothSolver:  Solving for Ux, Initial residual = 0.004255579, Final residual = 6.70237e-12, No Iterations 6
smoothSolver:  Solving for Uy, Initial residual = 0.0080819345, Final residual = 2.0626519e-11, No Iterations 6
smoothSolver:  Solving for Uz, Initial residual = 0.008109855, Final residual = 2.0684742e-11, No Iterations 6
smoothSolver:  Solving for e, Initial residual = 0.0009133944, Final residual = 7.6259225e-13, No Iterations 6
smoothSolver:  Solving for omega, Initial residual = 0.00044738682, Final residual = 9.2620506e-11, No Iterations 3
smoothSolver:  Solving for k, Initial residual = 0.010997171, Final residual = 2.1748254e-12, No Iterations 6
ExecutionTime = 0.867479 s  ClockTime = 1 s

Courant Number mean: 0.0056374059 max: 0.046280862
deltaT = 3.0932563e-07
Time = 1.49687e-06s

diagonal:  Solving for rho, Initial residual = 0, Final residual = 0, No Iterations 0
smoothSolver:  Solving for Ux, Initial residual = 0.00387624, Final residual = 8.7745724e-12, No Iterations 6
smoothSolver:  Solving for Uy, Initial residual = 0.008239202, Final residual = 6.0084981e-11, No Iterations 6
smoothSolver:  Solving for Uz, Initial residual = 0.0082588499, Final residual = 6.0198361e-11, No Iterations 6
smoothSolver:  Solving for e, Initial residual = 0.00090135921, Final residual = 1.506979e-12, No Iterations 6
smoothSolver:  Solving for omega, Initial residual = 0.00052916963, Final residual = 1.6119319e-10, No Iterations 3
smoothSolver:  Solving for k, Initial residual = 0.010577029, Final residual = 5.4685485e-12, No Iterations 6
ExecutionTime = 0.923425 s  ClockTime = 1 s

Courant Number mean: 0.0067635073 max: 0.056318588
deltaT = 3.7119076e-07
Time = 1.86806e-06s

diagonal:  Solving for rho, Initial residual = 0, Final residual = 0, No Iterations 0
smoothSolver:  Solving for Ux, Initial residual = 0.0034578553, Final residual = 1.3811543e-11, No Iterations 6
smoothSolver:  Solving for Uy, Initial residual = 0.0089089172, Final residual = 1.6082378e-10, No Iterations 6
smoothSolver:  Solving for Uz, Initial residual = 0.008924464, Final residual = 1.6104083e-10, No Iterations 6
smoothSolver:  Solving for e, Initial residual = 0.0009119704, Final residual = 3.0323546e-12, No Iterations 6
smoothSolver:  Solving for omega, Initial residual = 0.0006210875, Final residual = 2.6215182e-10, No Iterations 3
smoothSolver:  Solving for k, Initial residual = 0.010265839, Final residual = 1.330496e-11, No Iterations 6
ExecutionTime = 0.984179 s  ClockTime = 1 s

Courant Number mean: 0.0081162338 max: 0.068777761
deltaT = 4.4539578e-07
Time = 2.31345e-06s

diagonal:  Solving for rho, Initial residual = 0, Final residual = 0, No Iterations 0
smoothSolver:  Solving for Ux, Initial residual = 0.0030047681, Final residual = 2.6162063e-11, No Iterations 6
smoothSolver:  Solving for Uy, Initial residual = 0.010433561, Final residual = 4.9758209e-10, No Iterations 6
smoothSolver:  Solving for Uz, Initial residual = 0.010447808, Final residual = 4.981045e-10, No Iterations 6
smoothSolver:  Solving for e, Initial residual = 0.00094534273, Final residual = 7.3373104e-12, No Iterations 6
smoothSolver:  Solving for omega, Initial residual = 0.00072707702, Final residual = 4.3850982e-10, No Iterations 3
smoothSolver:  Solving for k, Initial residual = 0.010026334, Final residual = 3.4239698e-11, No Iterations 6
ExecutionTime = 1.043264 s  ClockTime = 1 s

Courant Number mean: 0.0097387929 max: 0.08430673
deltaT = 5.3437951e-07
Time = 2.84783e-06s

diagonal:  Solving for rho, Initial residual = 0, Final residual = 0, No Iterations 0
smoothSolver:  Solving for Ux, Initial residual = 0.002519691, Final residual = 5.4845032e-11, No Iterations 6
smoothSolver:  Solving for Uy, Initial residual = 0.01398756, Final residual = 5.3683832e-12, No Iterations 9
smoothSolver:  Solving for Uz, Initial residual = 0.0140042, Final residual = 5.3734135e-12, No Iterations 9
smoothSolver:  Solving for e, Initial residual = 0.00099670937, Final residual = 2.0705081e-11, No Iterations 6
smoothSolver:  Solving for omega, Initial residual = 0.00085747175, Final residual = 7.7103701e-10, No Iterations 3
smoothSolver:  Solving for k, Initial residual = 0.0098275976, Final residual = 9.2846389e-11, No Iterations 6
ExecutionTime = 1.10356 s  ClockTime = 1 s

Courant Number mean: 0.011684517 max: 0.10371054
deltaT = 6.4125541e-07
Time = 3.48909e-06s

diagonal:  Solving for rho, Initial residual = 0, Final residual = 0, No Iterations 0
smoothSolver:  Solving for Ux, Initial residual = 0.002008611, Final residual = 1.1802035e-10, No Iterations 6
smoothSolver:  Solving for Uy, Initial residual = 0.02617889, Final residual = 5.1306594e-11, No Iterations 9
smoothSolver:  Solving for Uz, Initial residual = 0.026214906, Final residual = 5.1366795e-11, No Iterations 9
smoothSolver:  Solving for e, Initial residual = 0.0010563089, Final residual = 6.0576683e-11, No Iterations 6
smoothSolver:  Solving for omega, Initial residual = 0.0010062338, Final residual = 7.7180625e-13, No Iterations 6
smoothSolver:  Solving for k, Initial residual = 0.0096569815, Final residual = 2.7268832e-10, No Iterations 6
ExecutionTime = 1.164462 s  ClockTime = 2 s

Courant Number mean: 0.014021488 max: 0.12784513
deltaT = 7.695065e-07
Time = 4.25859e-06s

diagonal:  Solving for rho, Initial residual = 0, Final residual = 0, No Iterations 0
smoothSolver:  Solving for Ux, Initial residual = 0.0014829955, Final residual = 2.6137967e-10, No Iterations 6
smoothSolver:  Solving for Uy, Initial residual = 0.063736675, Final residual = 5.7778091e-10, No Iterations 9
smoothSolver:  Solving for Uz, Initial residual = 0.063768581, Final residual = 5.779764e-10, No Iterations 9
smoothSolver:  Solving for e, Initial residual = 0.0010921342, Final residual = 1.7759726e-10, No Iterations 6
smoothSolver:  Solving for omega, Initial residual = 0.0011760384, Final residual = 2.4817294e-12, No Iterations 6
smoothSolver:  Solving for k, Initial residual = 0.0094930641, Final residual = 8.7719492e-10, No Iterations 6
ExecutionTime = 1.229643 s  ClockTime = 2 s

Courant Number mean: 0.016825858 max: 0.15699127
deltaT = 9.2283726e-07
Time = 5.18143e-06s

diagonal:  Solving for rho, Initial residual = 0, Final residual = 0, No Iterations 0
smoothSolver:  Solving for Ux, Initial residual = 0.00097225344, Final residual = 6.247739e-10, No Iterations 6
smoothSolver:  Solving for Uy, Initial residual = 0.014074408, Final residual = 5.079749e-10, No Iterations 9
smoothSolver:  Solving for Uz, Initial residual = 0.014076937, Final residual = 5.0800007e-10, No Iterations 9
smoothSolver:  Solving for e, Initial residual = 0.0010400626, Final residual = 5.0237619e-10, No Iterations 6
smoothSolver:  Solving for omega, Initial residual = 0.001352207, Final residual = 6.6618141e-12, No Iterations 6
smoothSolver:  Solving for k, Initial residual = 0.0093110377, Final residual = 3.4725973e-11, No Iterations 9
ExecutionTime = 1.294565 s  ClockTime = 2 s

Courant Number mean: 0.020178595 max: 0.19002675
deltaT = 1.1065835e-06
Time = 6.28801e-06s

diagonal:  Solving for rho, Initial residual = 0, Final residual = 0, No Iterations 0
smoothSolver:  Solving for Ux, Initial residual = 0.00054083537, Final residual = 3.5311479e-11, No Iterations 9
smoothSolver:  Solving for Uy, Initial residual = 0.0073178199, Final residual = 8.9558946e-10, No Iterations 9
smoothSolver:  Solving for Uz, Initial residual = 0.0073187008, Final residual = 8.9560461e-10, No Iterations 9
smoothSolver:  Solving for e, Initial residual = 0.00086507556, Final residual = 3.1468399e-11, No Iterations 9
smoothSolver:  Solving for omega, Initial residual = 0.0015528283, Final residual = 1.946103e-11, No Iterations 6
smoothSolver:  Solving for k, Initial residual = 0.0090793487, Final residual = 1.4168373e-10, No Iterations 9
ExecutionTime = 1.357107 s  ClockTime = 2 s

Courant Number mean: 0.024196292 max: 0.22637604
deltaT = 1.3267183e-06
Time = 7.61473e-06s

diagonal:  Solving for rho, Initial residual = 0, Final residual = 0, No Iterations 0
smoothSolver:  Solving for Ux, Initial residual = 0.00031074393, Final residual = 8.7070579e-11, No Iterations 9
smoothSolver:  Solving for Uy, Initial residual = 0.0046675906, Final residual = 7.3099462e-11, No Iterations 12
smoothSolver:  Solving for Uz, Initial residual = 0.0046680132, Final residual = 7.3099985e-11, No Iterations 12
smoothSolver:  Solving for e, Initial residual = 0.00068987137, Final residual = 9.900549e-11, No Iterations 9
smoothSolver:  Solving for omega, Initial residual = 0.0017753745, Final residual = 6.4818365e-11, No Iterations 6
smoothSolver:  Solving for k, Initial residual = 0.0089111489, Final residual = 4.3743302e-10, No Iterations 9
ExecutionTime = 1.419565 s  ClockTime = 2 s

Courant Number mean: 0.029009503 max: 0.26343384
deltaT = 1.590361e-06
Time = 9.20509e-06s

diagonal:  Solving for rho, Initial residual = 0, Final residual = 0, No Iterations 0
smoothSolver:  Solving for Ux, Initial residual = 0.00029546046, Final residual = 2.6231788e-10, No Iterations 9
smoothSolver:  Solving for Uy, Initial residual = 0.0033491985, Final residual = 2.3055617e-10, No Iterations 12
smoothSolver:  Solving for Uz, Initial residual = 0.0033494344, Final residual = 2.3055695e-10, No Iterations 12
smoothSolver:  Solving for e, Initial residual = 0.00060054234, Final residual = 3.38635e-10, No Iterations 9
smoothSolver:  Solving for omega, Initial residual = 0.0020262003, Final residual = 2.5999312e-10, No Iterations 6
smoothSolver:  Solving for k, Initial residual = 0.008823568, Final residual = 7.3931233e-11, No Iterations 12
ExecutionTime = 1.485239 s  ClockTime = 2 s

Courant Number mean: 0.034773965 max: 0.30686066
deltaT = 1.9053748e-06
Time = 1.11105e-05s

diagonal:  Solving for rho, Initial residual = 0, Final residual = 0, No Iterations 0
smoothSolver:  Solving for Ux, Initial residual = 0.0003071633, Final residual = 8.3671726e-10, No Iterations 9
smoothSolver:  Solving for Uy, Initial residual = 0.0025750105, Final residual = 6.2582099e-10, No Iterations 12
smoothSolver:  Solving for Uz, Initial residual = 0.0025751528, Final residual = 6.2582135e-10, No Iterations 12
smoothSolver:  Solving for e, Initial residual = 0.00061606636, Final residual = 8.521589e-11, No Iterations 12
smoothSolver:  Solving for omega, Initial residual = 0.0022652659, Final residual = 9.8401499e-10, No Iterations 6
smoothSolver:  Solving for k, Initial residual = 0.0088422653, Final residual = 3.1686141e-10, No Iterations 12
ExecutionTime = 1.552021 s  ClockTime = 2 s

Courant Number mean: 0.041661722 max: 0.3602877
deltaT = 2.2838095e-06
Time = 1.33943e-05s

diagonal:  Solving for rho, Initial residual = 0, Final residual = 0, No Iterations 0
smoothSolver:  Solving for Ux, Initial residual = 0.00028257216, Final residual = 1.8630355e-10, No Iterations 12
smoothSolver:  Solving for Uy, Initial residual = 0.0020702084, Final residual = 1.6446017e-10, No Iterations 15
smoothSolver:  Solving for Uz, Initial residual = 0.0020702991, Final residual = 1.6446021e-10, No Iterations 15
smoothSolver:  Solving for e, Initial residual = 0.00070134989, Final residual = 2.8220436e-10, No Iterations 12
smoothSolver:  Solving for omega, Initial residual = 0.0025028719, Final residual = 7.6172165e-11, No Iterations 9
smoothSolver:  Solving for k, Initial residual = 0.0088934976, Final residual = 9.3086774e-10, No Iterations 12
ExecutionTime = 1.616695 s  ClockTime = 2 s

Courant Number mean: 0.049936164 max: 0.43216545
deltaT = 2.6379832e-06
Time = 1.60323e-05s

diagonal:  Solving for rho, Initial residual = 0, Final residual = 0, No Iterations 0
smoothSolver:  Solving for Ux, Initial residual = 0.00025715366, Final residual = 3.2885634e-10, No Iterations 12
smoothSolver:  Solving for Uy, Initial residual = 0.0017045666, Final residual = 3.3729685e-10, No Iterations 15
smoothSolver:  Solving for Uz, Initial residual = 0.001704627, Final residual = 3.3729673e-10, No Iterations 15
smoothSolver:  Solving for e, Initial residual = 0.00074160138, Final residual = 6.1918111e-10, No Iterations 12
smoothSolver:  Solving for omega, Initial residual = 0.0026239983, Final residual = 1.8424505e-10, No Iterations 9
smoothSolver:  Solving for k, Initial residual = 0.0084567466, Final residual = 1.5554583e-10, No Iterations 15
ExecutionTime = 1.688586 s  ClockTime = 2 s

Courant Number mean: 0.057680001 max: 0.49768
deltaT = 2.6450746e-06
Time = 1.86773e-05s

diagonal:  Solving for rho, Initial residual = 0, Final residual = 0, No Iterations 0
smoothSolver:  Solving for Ux, Initial residual = 0.00021539306, Final residual = 1.8566862e-10, No Iterations 12
smoothSolver:  Solving for Uy, Initial residual = 0.0013310768, Final residual = 1.9790528e-10, No Iterations 15
smoothSolver:  Solving for Uz, Initial residual = 0.0013311138, Final residual = 1.9790509e-10, No Iterations 15
smoothSolver:  Solving for e, Initial residual = 0.00067034735, Final residual = 4.416326e-10, No Iterations 12
smoothSolver:  Solving for omega, Initial residual = 0.002419069, Final residual = 1.1459763e-10, No Iterations 9
smoothSolver:  Solving for k, Initial residual = 0.0070033537, Final residual = 8.3473977e-10, No Iterations 12
ExecutionTime = 1.75897 s  ClockTime = 2 s

Courant Number mean: 0.057834821 max: 0.49919799
deltaT = 2.6450746e-06
Time = 2.13224e-05s

diagonal:  Solving for rho, Initial residual = 0, Final residual = 0, No Iterations 0
smoothSolver:  Solving for Ux, Initial residual = 0.00019434938, Final residual = 9.8321702e-10, No Iterations 9
smoothSolver:  Solving for Uy, Initial residual = 0.0010926237, Final residual = 9.2717431e-10, No Iterations 12
smoothSolver:  Solving for Uz, Initial residual = 0.0010926487, Final residual = 9.271717e-10, No Iterations 12
smoothSolver:  Solving for e, Initial residual = 0.00062244348, Final residual = 3.2805843e-10, No Iterations 12
smoothSolver:  Solving for omega, Initial residual = 0.0021927351, Final residual = 7.1738366e-11, No Iterations 9
smoothSolver:  Solving for k, Initial residual = 0.0059806592, Final residual = 5.1080187e-10, No Iterations 12
ExecutionTime = 1.827547 s  ClockTime = 2 s

Courant Number mean: 0.05783466 max: 0.49621669
deltaT = 2.65945e-06
Time = 2.39819e-05s

diagonal:  Solving for rho, Initial residual = 0, Final residual = 0, No Iterations 0
smoothSolver:  Solving for Ux, Initial residual = 0.00018239113, Final residual = 6.6624297e-10, No Iterations 9
smoothSolver:  Solving for Uy, Initial residual = 0.0009591711, Final residual = 6.9381312e-10, No Iterations 12
smoothSolver:  Solving for Uz, Initial residual = 0.00095918936, Final residual = 6.938113e-10, No Iterations 12
smoothSolver:  Solving for e, Initial residual = 0.00058245598, Final residual = 2.6642583e-10, No Iterations 12
smoothSolver:  Solving for omega, Initial residual = 0.0020171476, Final residual = 4.4031195e-11, No Iterations 9
smoothSolver:  Solving for k, Initial residual = 0.0052376223, Final residual = 3.0231674e-10, No Iterations 12
ExecutionTime = 1.893376 s  ClockTime = 2 s

Courant Number mean: 0.058148894 max: 0.50224987
deltaT = 2.6450356e-06
Time = 2.66269e-05s

diagonal:  Solving for rho, Initial residual = 0, Final residual = 0, No Iterations 0
smoothSolver:  Solving for Ux, Initial residual = 0.00017386955, Final residual = 4.3548196e-10, No Iterations 9
smoothSolver:  Solving for Uy, Initial residual = 0.00085583922, Final residual = 5.0685784e-10, No Iterations 12
smoothSolver:  Solving for Uz, Initial residual = 0.00085585274, Final residual = 5.0685595e-10, No Iterations 12
smoothSolver:  Solving for e, Initial residual = 0.00053724295, Final residual = 2.019157e-10, No Iterations 12
smoothSolver:  Solving for omega, Initial residual = 0.0018446148, Final residual = 2.5268063e-11, No Iterations 9
smoothSolver:  Solving for k, Initial residual = 0.004592533, Final residual = 2.4331071e-10, No Iterations 12
ExecutionTime = 1.95939 s  ClockTime = 2 s

Courant Number mean: 0.057833705 max: 0.50850188
deltaT = 2.5956616e-06
Time = 2.92226e-05s

diagonal:  Solving for rho, Initial residual = 0, Final residual = 0, No Iterations 0
smoothSolver:  Solving for Ux, Initial residual = 0.00016582244, Final residual = 2.8535469e-10, No Iterations 9
smoothSolver:  Solving for Uy, Initial residual = 0.00077080533, Final residual = 3.5741888e-10, No Iterations 12
smoothSolver:  Solving for Uz, Initial residual = 0.00077081558, Final residual = 3.5741721e-10, No Iterations 12
smoothSolver:  Solving for e, Initial residual = 0.00048721888, Final residual = 1.4481523e-10, No Iterations 12
smoothSolver:  Solving for omega, Initial residual = 0.0016734162, Final residual = 6.4907215e-10, No Iterations 6
smoothSolver:  Solving for k, Initial residual = 0.0040104258, Final residual = 1.645289e-10, No Iterations 12
ExecutionTime = 2.024913 s  ClockTime = 2 s

Courant Number mean: 0.056754174 max: 0.50705785
deltaT = 2.5546775e-06
Time = 3.17772e-05s

diagonal:  Solving for rho, Initial residual = 0, Final residual = 0, No Iterations 0
smoothSolver:  Solving for Ux, Initial residual = 0.00015993325, Final residual = 1.9312615e-10, No Iterations 9
smoothSolver:  Solving for Uy, Initial residual = 0.00070683175, Final residual = 2.6775458e-10, No Iterations 12
smoothSolver:  Solving for Uz, Initial residual = 0.00070683996, Final residual = 2.6775316e-10, No Iterations 12
smoothSolver:  Solving for e, Initial residual = 0.00044122024, Final residual = 8.7495914e-10, No Iterations 9
smoothSolver:  Solving for omega, Initial residual = 0.0015110916, Final residual = 3.9881768e-10, No Iterations 6
smoothSolver:  Solving for k, Initial residual = 0.0035469622, Final residual = 1.2837768e-10, No Iterations 12
ExecutionTime = 2.094186 s  ClockTime = 2 s

Courant Number mean: 0.055858108 max: 0.50422345
deltaT = 2.5279968e-06
Time = 3.43052e-05s

diagonal:  Solving for rho, Initial residual = 0, Final residual = 0, No Iterations 0
smoothSolver:  Solving for Ux, Initial residual = 0.0001554737, Final residual = 1.3701596e-10, No Iterations 9
smoothSolver:  Solving for Uy, Initial residual = 0.0006582116, Final residual = 2.1437951e-10, No Iterations 12
smoothSolver:  Solving for Uz, Initial residual = 0.00065821829, Final residual = 2.1437838e-10, No Iterations 12
smoothSolver:  Solving for e, Initial residual = 0.00040026702, Final residual = 6.8768495e-10, No Iterations 9
smoothSolver:  Solving for omega, Initial residual = 0.001412067, Final residual = 2.8457491e-10, No Iterations 6
smoothSolver:  Solving for k, Initial residual = 0.0031859162, Final residual = 1.0785319e-10, No Iterations 12
ExecutionTime = 2.164366 s  ClockTime = 3 s

Courant Number mean: 0.055274831 max: 0.49938818
deltaT = 2.5279968e-06
Time = 3.68332e-05s

diagonal:  Solving for rho, Initial residual = 0, Final residual = 0, No Iterations 0
smoothSolver:  Solving for Ux, Initial residual = 0.00015355734, Final residual = 9.936024e-10, No Iterations 6
smoothSolver:  Solving for Uy, Initial residual = 0.00062369053, Final residual = 1.8969016e-10, No Iterations 12
smoothSolver:  Solving for Uz, Initial residual = 0.00062369619, Final residual = 1.8968927e-10, No Iterations 12
smoothSolver:  Solving for e, Initial residual = 0.00036795738, Final residual = 6.0846082e-10, No Iterations 9
smoothSolver:  Solving for omega, Initial residual = 0.0013247788, Final residual = 2.1420731e-10, No Iterations 6
smoothSolver:  Solving for k, Initial residual = 0.0028961247, Final residual = 8.9681409e-10, No Iterations 9
ExecutionTime = 2.230649 s  ClockTime = 3 s

Courant Number mean: 0.055274959 max: 0.50735441
deltaT = 2.488803e-06
Time = 3.9322e-05s

diagonal:  Solving for rho, Initial residual = 0, Final residual = 0, No Iterations 0
smoothSolver:  Solving for Ux, Initial residual = 0.0001501836, Final residual = 8.1844289e-10, No Iterations 6
smoothSolver:  Solving for Uy, Initial residual = 0.00058424058, Final residual = 1.5015766e-10, No Iterations 12
smoothSolver:  Solving for Uz, Initial residual = 0.00058424551, Final residual = 1.5015713e-10, No Iterations 12
smoothSolver:  Solving for e, Initial residual = 0.00034188945, Final residual = 5.1937145e-10, No Iterations 9
smoothSolver:  Solving for omega, Initial residual = 0.0012478996, Final residual = 1.7090391e-10, No Iterations 6
smoothSolver:  Solving for k, Initial residual = 0.0025961271, Final residual = 6.8172282e-10, No Iterations 9
ExecutionTime = 2.290722 s  ClockTime = 3 s

Courant Number mean: 0.054418161 max: 0.50973568
deltaT = 2.438269e-06
Time = 4.17603e-05s

diagonal:  Solving for rho, Initial residual = 0, Final residual = 0, No Iterations 0
smoothSolver:  Solving for Ux, Initial residual = 0.00014599314, Final residual = 6.5233136e-10, No Iterations 6
smoothSolver:  Solving for Uy, Initial residual = 0.00054704797, Final residual = 1.1697294e-10, No Iterations 12
smoothSolver:  Solving for Uz, Initial residual = 0.00054705201, Final residual = 1.1697239e-10, No Iterations 12
smoothSolver:  Solving for e, Initial residual = 0.00031551936, Final residual = 4.1316197e-10, No Iterations 9
smoothSolver:  Solving for omega, Initial residual = 0.0011655102, Final residual = 9.4760281e-11, No Iterations 6
smoothSolver:  Solving for k, Initial residual = 0.0023520475, Final residual = 5.1353861e-10, No Iterations 9
ExecutionTime = 2.354534 s  ClockTime = 3 s

Courant Number mean: 0.0533134 max: 0.50769812
deltaT = 2.3955992e-06
Time = 4.41559e-05s

diagonal:  Solving for rho, Initial residual = 0, Final residual = 0, No Iterations 0
smoothSolver:  Solving for Ux, Initial residual = 0.00014187061, Final residual = 6.190877e-10, No Iterations 6
smoothSolver:  Solving for Uy, Initial residual = 0.00051765403, Final residual = 8.6438713e-10, No Iterations 9
smoothSolver:  Solving for Uz, Initial residual = 0.0005176553, Final residual = 8.6438196e-10, No Iterations 9
smoothSolver:  Solving for e, Initial residual = 0.00029416741, Final residual = 3.5930968e-10, No Iterations 9
smoothSolver:  Solving for omega, Initial residual = 0.0010851804, Final residual = 7.599535e-11, No Iterations 6
smoothSolver:  Solving for k, Initial residual = 0.0021673167, Final residual = 3.9638484e-10, No Iterations 9
ExecutionTime = 2.41887 s  ClockTime = 3 s

Courant Number mean: 0.052380601 max: 0.50309355
deltaT = 2.3777216e-06
Time = 4.65336e-05s

diagonal:  Solving for rho, Initial residual = 0, Final residual = 0, No Iterations 0
smoothSolver:  Solving for Ux, Initial residual = 0.00013788198, Final residual = 5.3578644e-10, No Iterations 6
smoothSolver:  Solving for Uy, Initial residual = 0.00049587638, Final residual = 7.5712565e-10, No Iterations 9
smoothSolver:  Solving for Uz, Initial residual = 0.00049587509, Final residual = 7.5712179e-10, No Iterations 9
smoothSolver:  Solving for e, Initial residual = 0.00028049154, Final residual = 2.9741073e-10, No Iterations 9
smoothSolver:  Solving for omega, Initial residual = 0.0010189221, Final residual = 6.0787347e-11, No Iterations 6
smoothSolver:  Solving for k, Initial residual = 0.0020391105, Final residual = 3.7099926e-10, No Iterations 9
ExecutionTime = 2.481981 s  ClockTime = 3 s

Courant Number mean: 0.051989894 max: 0.5059885
deltaT = 2.3484394e-06
Time = 4.88821e-05s

diagonal:  Solving for rho, Initial residual = 0, Final residual = 0, No Iterations 0
smoothSolver:  Solving for Ux, Initial residual = 0.00013286056, Final residual = 4.7318759e-10, No Iterations 6
smoothSolver:  Solving for Uy, Initial residual = 0.00047371092, Final residual = 6.4256476e-10, No Iterations 9
smoothSolver:  Solving for Uz, Initial residual = 0.00047370855, Final residual = 6.4256103e-10, No Iterations 9
smoothSolver:  Solving for e, Initial residual = 0.0002663868, Final residual = 2.4392956e-10, No Iterations 9
smoothSolver:  Solving for omega, Initial residual = 0.00095814264, Final residual = 5.2255097e-11, No Iterations 6
smoothSolver:  Solving for k, Initial residual = 0.0019008487, Final residual = 3.2076011e-10, No Iterations 9
ExecutionTime = 2.545052 s  ClockTime = 3 s

Courant Number mean: 0.051349802 max: 0.50496055
deltaT = 2.3197999e-06
Time = 5.12019e-05s

diagonal:  Solving for rho, Initial residual = 0, Final residual = 0, No Iterations 0
smoothSolver:  Solving for Ux, Initial residual = 0.00012675677, Final residual = 4.1761803e-10, No Iterations 6
smoothSolver:  Solving for Uy, Initial residual = 0.00045347039, Final residual = 5.4063362e-10, No Iterations 9
smoothSolver:  Solving for Uz, Initial residual = 0.00045346827, Final residual = 5.4062995e-10, No Iterations 9
smoothSolver:  Solving for e, Initial residual = 0.00024997171, Final residual = 1.982326e-10, No Iterations 9
smoothSolver:  Solving for omega, Initial residual = 0.00093755289, Final residual = 3.8247902e-11, No Iterations 6
smoothSolver:  Solving for k, Initial residual = 0.0017784966, Final residual = 2.7760373e-10, No Iterations 9
ExecutionTime = 2.607087 s  ClockTime = 3 s

Courant Number mean: 0.050723776 max: 0.50143503
deltaT = 2.3085113e-06
Time = 5.35104e-05s

diagonal:  Solving for rho, Initial residual = 0, Final residual = 0, No Iterations 0
smoothSolver:  Solving for Ux, Initial residual = 0.00012143877, Final residual = 3.8252763e-10, No Iterations 6
smoothSolver:  Solving for Uy, Initial residual = 0.00044111231, Final residual = 4.8355035e-10, No Iterations 9
smoothSolver:  Solving for Uz, Initial residual = 0.00044111043, Final residual = 4.8354642e-10, No Iterations 9
smoothSolver:  Solving for e, Initial residual = 0.00023521059, Final residual = 1.7292216e-10, No Iterations 9
smoothSolver:  Solving for omega, Initial residual = 0.00089229691, Final residual = 2.8265882e-11, No Iterations 6
smoothSolver:  Solving for k, Initial residual = 0.0016551411, Final residual = 2.6283691e-10, No Iterations 9
ExecutionTime = 2.670872 s  ClockTime = 3 s

Courant Number mean: 0.050477122 max: 0.50061555
deltaT = 2.3028945e-06
Time = 5.58133e-05s

diagonal:  Solving for rho, Initial residual = 0, Final residual = 0, No Iterations 0
smoothSolver:  Solving for Ux, Initial residual = 0.00011650534, Final residual = 3.5317093e-10, No Iterations 6
smoothSolver:  Solving for Uy, Initial residual = 0.00043411103, Final residual = 4.49061e-10, No Iterations 9
smoothSolver:  Solving for Uz, Initial residual = 0.00043410929, Final residual = 4.4905687e-10, No Iterations 9
smoothSolver:  Solving for e, Initial residual = 0.00022202182, Final residual = 1.5666403e-10, No Iterations 9
smoothSolver:  Solving for omega, Initial residual = 0.00085204494, Final residual = 3.2465868e-11, No Iterations 6
smoothSolver:  Solving for k, Initial residual = 0.0015458633, Final residual = 2.5335977e-10, No Iterations 9
ExecutionTime = 2.735125 s  ClockTime = 3 s

Courant Number mean: 0.050354504 max: 0.49929873
deltaT = 2.3028945e-06
Time = 5.81162e-05s

diagonal:  Solving for rho, Initial residual = 0, Final residual = 0, No Iterations 0
smoothSolver:  Solving for Ux, Initial residual = 0.00011208335, Final residual = 3.3028505e-10, No Iterations 6
smoothSolver:  Solving for Uy, Initial residual = 0.00042989427, Final residual = 4.2481309e-10, No Iterations 9
smoothSolver:  Solving for Uz, Initial residual = 0.00042989288, Final residual = 4.2480875e-10, No Iterations 9
smoothSolver:  Solving for e, Initial residual = 0.00021078939, Final residual = 1.4369913e-10, No Iterations 9
smoothSolver:  Solving for omega, Initial residual = 0.00083036245, Final residual = 3.0791809e-11, No Iterations 6
smoothSolver:  Solving for k, Initial residual = 0.001455794, Final residual = 2.4588483e-10, No Iterations 9
ExecutionTime = 2.804433 s  ClockTime = 3 s

Courant Number mean: 0.050354698 max: 0.49895342
deltaT = 2.3028945e-06
Time = 6.04191e-05s

diagonal:  Solving for rho, Initial residual = 0, Final residual = 0, No Iterations 0
smoothSolver:  Solving for Ux, Initial residual = 0.00010835541, Final residual = 3.6242001e-10, No Iterations 6
smoothSolver:  Solving for Uy, Initial residual = 0.0004318422, Final residual = 4.0224526e-10, No Iterations 9
smoothSolver:  Solving for Uz, Initial residual = 0.00043184086, Final residual = 4.0224096e-10, No Iterations 9
smoothSolver:  Solving for e, Initial residual = 0.00020265813, Final residual = 1.4439595e-10, No Iterations 9
smoothSolver:  Solving for omega, Initial residual = 0.00080090097, Final residual = 2.9725044e-11, No Iterations 6
smoothSolver:  Solving for k, Initial residual = 0.0013593976, Final residual = 2.4035952e-10, No Iterations 9
ExecutionTime = 2.882525 s  ClockTime = 3 s

Courant Number mean: 0.050354919 max: 0.49838841
deltaT = 2.3085527e-06
Time = 6.27276e-05s

diagonal:  Solving for rho, Initial residual = 0, Final residual = 0, No Iterations 0
smoothSolver:  Solving for Ux, Initial residual = 0.0001053586, Final residual = 3.1752638e-10, No Iterations 6
smoothSolver:  Solving for Uy, Initial residual = 0.00043448043, Final residual = 3.8459848e-10, No Iterations 9
smoothSolver:  Solving for Uz, Initial residual = 0.00043447929, Final residual = 3.8459448e-10, No Iterations 9
smoothSolver:  Solving for e, Initial residual = 0.0001974646, Final residual = 1.2524732e-10, No Iterations 9
smoothSolver:  Solving for omega, Initial residual = 0.00079420964, Final residual = 3.0054865e-11, No Iterations 6
smoothSolver:  Solving for k, Initial residual = 0.0012832551, Final residual = 2.3633951e-10, No Iterations 9
ExecutionTime = 2.944943 s  ClockTime = 3 s

Courant Number mean: 0.050478885 max: 0.5031872
deltaT = 2.2916195e-06
Time = 6.50192e-05s

diagonal:  Solving for rho, Initial residual = 0, Final residual = 0, No Iterations 0
smoothSolver:  Solving for Ux, Initial residual = 0.00010177724, Final residual = 3.1668771e-10, No Iterations 6
smoothSolver:  Solving for Uy, Initial residual = 0.00043384003, Final residual = 3.4932152e-10, No Iterations 9
smoothSolver:  Solving for Uz, Initial residual = 0.0004338389, Final residual = 3.4931788e-10, No Iterations 9
smoothSolver:  Solving for e, Initial residual = 0.00019064582, Final residual = 1.1339978e-10, No Iterations 9
smoothSolver:  Solving for omega, Initial residual = 0.00077201574, Final residual = 3.0845335e-11, No Iterations 6
smoothSolver:  Solving for k, Initial residual = 0.0011871936, Final residual = 2.1545816e-10, No Iterations 9
ExecutionTime = 3.005542 s  ClockTime = 3 s

Courant Number mean: 0.050108865 max: 0.50128358
deltaT = 2.2804409e-06
Time = 6.72997e-05s

diagonal:  Solving for rho, Initial residual = 0, Final residual = 0, No Iterations 0
smoothSolver:  Solving for Ux, Initial residual = 9.846361e-05, Final residual = 2.8227051e-10, No Iterations 6
smoothSolver:  Solving for Uy, Initial residual = 0.00043886613, Final residual = 3.1687142e-10, No Iterations 9
smoothSolver:  Solving for Uz, Initial residual = 0.00043886549, Final residual = 3.1686817e-10, No Iterations 9
smoothSolver:  Solving for e, Initial residual = 0.00018354448, Final residual = 9.5109784e-11, No Iterations 9
smoothSolver:  Solving for omega, Initial residual = 0.00074138046, Final residual = 3.5107095e-11, No Iterations 6
smoothSolver:  Solving for k, Initial residual = 0.0011129019, Final residual = 1.9089967e-10, No Iterations 9
ExecutionTime = 3.072843 s  ClockTime = 3 s

Courant Number mean: 0.049864678 max: 0.49906053
deltaT = 2.2804409e-06
Time = 6.95801e-05s

diagonal:  Solving for rho, Initial residual = 0, Final residual = 0, No Iterations 0
smoothSolver:  Solving for Ux, Initial residual = 9.6494427e-05, Final residual = 2.8857562e-10, No Iterations 6
smoothSolver:  Solving for Uy, Initial residual = 0.00044572898, Final residual = 2.9772146e-10, No Iterations 9
smoothSolver:  Solving for Uz, Initial residual = 0.00044572804, Final residual = 2.9771873e-10, No Iterations 9
smoothSolver:  Solving for e, Initial residual = 0.00017539179, Final residual = 8.8576425e-11, No Iterations 9
smoothSolver:  Solving for omega, Initial residual = 0.00072718155, Final residual = 3.2774718e-11, No Iterations 6
smoothSolver:  Solving for k, Initial residual = 0.0010417466, Final residual = 1.8387156e-10, No Iterations 9
ExecutionTime = 3.139149 s  ClockTime = 3 s

Courant Number mean: 0.049864927 max: 0.49807626
deltaT = 2.286044e-06
Time = 7.18662e-05s

diagonal:  Solving for rho, Initial residual = 0, Final residual = 0, No Iterations 0
smoothSolver:  Solving for Ux, Initial residual = 9.3908249e-05, Final residual = 2.630276e-10, No Iterations 6
smoothSolver:  Solving for Uy, Initial residual = 0.00045983685, Final residual = 2.7810007e-10, No Iterations 9
smoothSolver:  Solving for Uz, Initial residual = 0.00045983594, Final residual = 2.780978e-10, No Iterations 9
smoothSolver:  Solving for e, Initial residual = 0.0001685319, Final residual = 8.9275945e-10, No Iterations 6
smoothSolver:  Solving for omega, Initial residual = 0.00071713465, Final residual = 3.6385548e-11, No Iterations 6
smoothSolver:  Solving for k, Initial residual = 0.00097651548, Final residual = 1.7047736e-10, No Iterations 9
ExecutionTime = 3.204862 s  ClockTime = 4 s

Courant Number mean: 0.049987719 max: 0.5020175
deltaT = 2.2748379e-06
Time = 7.4141e-05s

diagonal:  Solving for rho, Initial residual = 0, Final residual = 0, No Iterations 0
smoothSolver:  Solving for Ux, Initial residual = 9.0694786e-05, Final residual = 2.4244581e-10, No Iterations 6
smoothSolver:  Solving for Uy, Initial residual = 0.00047844516, Final residual = 2.5261712e-10, No Iterations 9
smoothSolver:  Solving for Uz, Initial residual = 0.00047844437, Final residual = 2.5261539e-10, No Iterations 9
smoothSolver:  Solving for e, Initial residual = 0.00016171641, Final residual = 7.9283987e-10, No Iterations 6
smoothSolver:  Solving for omega, Initial residual = 0.00070133341, Final residual = 3.5704871e-11, No Iterations 6
smoothSolver:  Solving for k, Initial residual = 0.00091131767, Final residual = 1.5460977e-10, No Iterations 9
ExecutionTime = 3.271436 s  ClockTime = 4 s

Courant Number mean: 0.049742965 max: 0.50433485
deltaT = 2.2526983e-06
Time = 7.63937e-05s

diagonal:  Solving for rho, Initial residual = 0, Final residual = 0, No Iterations 0
smoothSolver:  Solving for Ux, Initial residual = 8.7230368e-05, Final residual = 2.219259e-10, No Iterations 6
smoothSolver:  Solving for Uy, Initial residual = 0.00049807554, Final residual = 2.2255896e-10, No Iterations 9
smoothSolver:  Solving for Uz, Initial residual = 0.00049807463, Final residual = 2.2255763e-10, No Iterations 9
smoothSolver:  Solving for e, Initial residual = 0.00015432209, Final residual = 6.95498e-10, No Iterations 6
smoothSolver:  Solving for omega, Initial residual = 0.00067039162, Final residual = 3.3828636e-11, No Iterations 6
smoothSolver:  Solving for k, Initial residual = 0.0008479909, Final residual = 1.3922708e-10, No Iterations 9
ExecutionTime = 3.333542 s  ClockTime = 4 s

Courant Number mean: 0.049259113 max: 0.50292097
deltaT = 2.2363349e-06
Time = 7.863e-05s

diagonal:  Solving for rho, Initial residual = 0, Final residual = 0, No Iterations 0
smoothSolver:  Solving for Ux, Initial residual = 8.4018714e-05, Final residual = 1.9170836e-10, No Iterations 6
smoothSolver:  Solving for Uy, Initial residual = 0.00051912718, Final residual = 1.9664476e-10, No Iterations 9
smoothSolver:  Solving for Uz, Initial residual = 0.00051912631, Final residual = 1.9664377e-10, No Iterations 9
smoothSolver:  Solving for e, Initial residual = 0.00014730599, Final residual = 5.9147642e-10, No Iterations 6
smoothSolver:  Solving for omega, Initial residual = 0.00064901016, Final residual = 3.4279728e-11, No Iterations 6
smoothSolver:  Solving for k, Initial residual = 0.00079465514, Final residual = 1.235762e-10, No Iterations 9
ExecutionTime = 3.400011 s  ClockTime = 4 s

Courant Number mean: 0.048901554 max: 0.50186067
deltaT = 2.2255313e-06
Time = 8.08556e-05s

diagonal:  Solving for rho, Initial residual = 0, Final residual = 0, No Iterations 0
smoothSolver:  Solving for Ux, Initial residual = 8.0850076e-05, Final residual = 1.7202256e-10, No Iterations 6
smoothSolver:  Solving for Uy, Initial residual = 0.00054491713, Final residual = 1.7806033e-10, No Iterations 9
smoothSolver:  Solving for Uz, Initial residual = 0.00054491597, Final residual = 1.7805964e-10, No Iterations 9
smoothSolver:  Solving for e, Initial residual = 0.00014052336, Final residual = 5.1507806e-10, No Iterations 6
smoothSolver:  Solving for omega, Initial residual = 0.00064078964, Final residual = 3.404453e-11, No Iterations 6
smoothSolver:  Solving for k, Initial residual = 0.00075111964, Final residual = 1.1183356e-10, No Iterations 9
ExecutionTime = 3.464721 s  ClockTime = 4 s

Courant Number mean: 0.04866557 max: 0.50109547
deltaT = 2.2201557e-06
Time = 8.30757e-05s

diagonal:  Solving for rho, Initial residual = 0, Final residual = 0, No Iterations 0
smoothSolver:  Solving for Ux, Initial residual = 7.8136257e-05, Final residual = 1.6154904e-10, No Iterations 6
smoothSolver:  Solving for Uy, Initial residual = 0.00057515586, Final residual = 1.6223645e-10, No Iterations 9
smoothSolver:  Solving for Uz, Initial residual = 0.00057515484, Final residual = 1.6223599e-10, No Iterations 9
smoothSolver:  Solving for e, Initial residual = 0.00013391232, Final residual = 4.6192177e-10, No Iterations 6
smoothSolver:  Solving for omega, Initial residual = 0.0006312769, Final residual = 3.3795074e-11, No Iterations 6
smoothSolver:  Solving for k, Initial residual = 0.00071042275, Final residual = 1.0248964e-10, No Iterations 9
ExecutionTime = 3.526554 s  ClockTime = 4 s

Courant Number mean: 0.048548279 max: 0.50069452
deltaT = 2.214793e-06
Time = 8.52905e-05s

diagonal:  Solving for rho, Initial residual = 0, Final residual = 0, No Iterations 0
smoothSolver:  Solving for Ux, Initial residual = 7.5678631e-05, Final residual = 1.513638e-10, No Iterations 6
smoothSolver:  Solving for Uy, Initial residual = 0.00060823187, Final residual = 1.463274e-10, No Iterations 9
smoothSolver:  Solving for Uz, Initial residual = 0.0006082306, Final residual = 1.4632711e-10, No Iterations 9
smoothSolver:  Solving for e, Initial residual = 0.00012775124, Final residual = 4.1639305e-10, No Iterations 6
smoothSolver:  Solving for omega, Initial residual = 0.00061491173, Final residual = 3.5014031e-11, No Iterations 6
smoothSolver:  Solving for k, Initial residual = 0.00067457584, Final residual = 9.3498973e-11, No Iterations 9
ExecutionTime = 3.586471 s  ClockTime = 4 s

Courant Number mean: 0.048431282 max: 0.49960504
deltaT = 2.214793e-06
Time = 8.75053e-05s

diagonal:  Solving for rho, Initial residual = 0, Final residual = 0, No Iterations 0
smoothSolver:  Solving for Ux, Initial residual = 7.4263669e-05, Final residual = 1.4748358e-10, No Iterations 6
smoothSolver:  Solving for Uy, Initial residual = 0.00064615657, Final residual = 1.4073229e-10, No Iterations 9
smoothSolver:  Solving for Uz, Initial residual = 0.00064615546, Final residual = 1.4073211e-10, No Iterations 9
smoothSolver:  Solving for e, Initial residual = 0.00012249181, Final residual = 3.9149565e-10, No Iterations 6
smoothSolver:  Solving for omega, Initial residual = 0.00059787987, Final residual = 3.4447921e-11, No Iterations 6
smoothSolver:  Solving for k, Initial residual = 0.00064210256, Final residual = 8.518419e-11, No Iterations 9
ExecutionTime = 3.651711 s  ClockTime = 4 s

Courant Number mean: 0.048431539 max: 0.49886186
deltaT = 2.214793e-06
Time = 8.97201e-05s

diagonal:  Solving for rho, Initial residual = 0, Final residual = 0, No Iterations 0
smoothSolver:  Solving for Ux, Initial residual = 7.2884321e-05, Final residual = 1.4181481e-10, No Iterations 6
smoothSolver:  Solving for Uy, Initial residual = 0.00069065636, Final residual = 1.4105914e-10, No Iterations 9
smoothSolver:  Solving for Uz, Initial residual = 0.00069065491, Final residual = 1.4105902e-10, No Iterations 9
smoothSolver:  Solving for e, Initial residual = 0.00011787756, Final residual = 3.6656473e-10, No Iterations 6
smoothSolver:  Solving for omega, Initial residual = 0.00058435171, Final residual = 3.4532092e-11, No Iterations 6
smoothSolver:  Solving for k, Initial residual = 0.00061414576, Final residual = 7.4901406e-11, No Iterations 9
ExecutionTime = 3.715118 s  ClockTime = 4 s

Courant Number mean: 0.048431814 max: 0.49682461
deltaT = 2.2256233e-06
Time = 9.19457e-05s

diagonal:  Solving for rho, Initial residual = 0, Final residual = 0, No Iterations 0
smoothSolver:  Solving for Ux, Initial residual = 7.2056662e-05, Final residual = 1.2490188e-10, No Iterations 6
smoothSolver:  Solving for Uy, Initial residual = 0.00074534329, Final residual = 1.3817679e-10, No Iterations 9
smoothSolver:  Solving for Uz, Initial residual = 0.00074534184, Final residual = 1.381767e-10, No Iterations 9
smoothSolver:  Solving for e, Initial residual = 0.0001140555, Final residual = 3.1770806e-10, No Iterations 6
smoothSolver:  Solving for omega, Initial residual = 0.0005797344, Final residual = 3.5051117e-11, No Iterations 6
smoothSolver:  Solving for k, Initial residual = 0.00059183596, Final residual = 6.4559909e-11, No Iterations 9
ExecutionTime = 3.775959 s  ClockTime = 4 s

Courant Number mean: 0.04866893 max: 0.49543083
deltaT = 2.2421093e-06
Time = 9.41878e-05s

diagonal:  Solving for rho, Initial residual = 0, Final residual = 0, No Iterations 0
smoothSolver:  Solving for Ux, Initial residual = 7.1251609e-05, Final residual = 1.0674131e-10, No Iterations 6
smoothSolver:  Solving for Uy, Initial residual = 0.00081126789, Final residual = 1.364192e-10, No Iterations 9
smoothSolver:  Solving for Uz, Initial residual = 0.00081126667, Final residual = 1.3641915e-10, No Iterations 9
smoothSolver:  Solving for e, Initial residual = 0.00011118781, Final residual = 2.6827801e-10, No Iterations 6
smoothSolver:  Solving for omega, Initial residual = 0.00057076292, Final residual = 3.6637256e-11, No Iterations 6
smoothSolver:  Solving for k, Initial residual = 0.00057329979, Final residual = 5.8755619e-11, No Iterations 9
ExecutionTime = 3.834841 s  ClockTime = 4 s

Courant Number mean: 0.049029736 max: 0.49644942
deltaT = 2.2532641e-06
Time = 9.64411e-05s

diagonal:  Solving for rho, Initial residual = 0, Final residual = 0, No Iterations 0
smoothSolver:  Solving for Ux, Initial residual = 7.0340894e-05, Final residual = 1.118365e-10, No Iterations 6
smoothSolver:  Solving for Uy, Initial residual = 0.00088763111, Final residual = 1.404272e-10, No Iterations 9
smoothSolver:  Solving for Uz, Initial residual = 0.00088762965, Final residual = 1.404272e-10, No Iterations 9
smoothSolver:  Solving for e, Initial residual = 0.00010830977, Final residual = 2.7167464e-10, No Iterations 6
smoothSolver:  Solving for omega, Initial residual = 0.00055591037, Final residual = 3.9840069e-11, No Iterations 6
smoothSolver:  Solving for k, Initial residual = 0.00055134288, Final residual = 5.423428e-11, No Iterations 9
ExecutionTime = 3.900689 s  ClockTime = 4 s

Courant Number mean: 0.049273967 max: 0.49743844
deltaT = 2.2645587e-06
Time = 9.87056e-05s

diagonal:  Solving for rho, Initial residual = 0, Final residual = 0, No Iterations 0
smoothSolver:  Solving for Ux, Initial residual = 6.9534458e-05, Final residual = 9.0292761e-11, No Iterations 6
smoothSolver:  Solving for Uy, Initial residual = 0.00097770973, Final residual = 1.3625317e-10, No Iterations 9
smoothSolver:  Solving for Uz, Initial residual = 0.00097770854, Final residual = 1.362532e-10, No Iterations 9
smoothSolver:  Solving for e, Initial residual = 0.0001054959, Final residual = 2.2445154e-10, No Iterations 6
smoothSolver:  Solving for omega, Initial residual = 0.0005399349, Final residual = 4.0678676e-11, No Iterations 6
smoothSolver:  Solving for k, Initial residual = 0.00053172372, Final residual = 9.3122764e-10, No Iterations 6
ExecutionTime = 3.965098 s  ClockTime = 4 s

Courant Number mean: 0.049521268 max: 0.49674538
deltaT = 2.2759958e-06
Time = 0.000100982s

diagonal:  Solving for rho, Initial residual = 0, Final residual = 0, No Iterations 0
smoothSolver:  Solving for Ux, Initial residual = 6.9084099e-05, Final residual = 8.0697174e-11, No Iterations 6
smoothSolver:  Solving for Uy, Initial residual = 0.0010847297, Final residual = 1.4088343e-10, No Iterations 9
smoothSolver:  Solving for Uz, Initial residual = 0.0010847276, Final residual = 1.4088345e-10, No Iterations 9
smoothSolver:  Solving for e, Initial residual = 0.00010293386, Final residual = 2.0649509e-10, No Iterations 6
smoothSolver:  Solving for omega, Initial residual = 0.00053371122, Final residual = 4.3090371e-11, No Iterations 6
smoothSolver:  Solving for k, Initial residual = 0.00051459451, Final residual = 8.7393026e-10, No Iterations 6
ExecutionTime = 4.027881 s  ClockTime = 4 s

Courant Number mean: 0.049771716 max: 0.495037
deltaT = 2.2934142e-06
Time = 0.000103275s

diagonal:  Solving for rho, Initial residual = 0, Final residual = 0, No Iterations 0
smoothSolver:  Solving for Ux, Initial residual = 6.872352e-05, Final residual = 7.3484501e-11, No Iterations 6
smoothSolver:  Solving for Uy, Initial residual = 0.0012214854, Final residual = 1.5149889e-10, No Iterations 9
smoothSolver:  Solving for Uz, Initial residual = 0.0012214835, Final residual = 1.5149894e-10, No Iterations 9
smoothSolver:  Solving for e, Initial residual = 0.00010045048, Final residual = 1.9348445e-10, No Iterations 6
smoothSolver:  Solving for omega, Initial residual = 0.00053118718, Final residual = 4.5853964e-11, No Iterations 6
smoothSolver:  Solving for k, Initial residual = 0.00049955681, Final residual = 8.3759908e-10, No Iterations 6
ExecutionTime = 4.084821 s  ClockTime = 4 s

Courant Number mean: 0.050152985 max: 0.50401815
deltaT = 2.2701897e-06
Time = 0.000105545s

diagonal:  Solving for rho, Initial residual = 0, Final residual = 0, No Iterations 0
smoothSolver:  Solving for Ux, Initial residual = 6.7800703e-05, Final residual = 6.3341872e-11, No Iterations 6
smoothSolver:  Solving for Uy, Initial residual = 0.001384177, Final residual = 1.4576416e-10, No Iterations 9
smoothSolver:  Solving for Uz, Initial residual = 0.0013841752, Final residual = 1.4576423e-10, No Iterations 9
smoothSolver:  Solving for e, Initial residual = 9.6616296e-05, Final residual = 1.6763709e-10, No Iterations 6
smoothSolver:  Solving for omega, Initial residual = 0.00051285729, Final residual = 4.2887499e-11, No Iterations 6
smoothSolver:  Solving for k, Initial residual = 0.0004760277, Final residual = 7.3538993e-10, No Iterations 6
ExecutionTime = 4.143644 s  ClockTime = 4 s

Courant Number mean: 0.049645478 max: 0.4894271
deltaT = 2.3172403e-06
Time = 0.000107862s

diagonal:  Solving for rho, Initial residual = 0, Final residual = 0, No Iterations 0
smoothSolver:  Solving for Ux, Initial residual = 6.8621681e-05, Final residual = 6.2373141e-11, No Iterations 6
smoothSolver:  Solving for Uy, Initial residual = 0.0016388564, Final residual = 1.7628933e-10, No Iterations 9
smoothSolver:  Solving for Uz, Initial residual = 0.0016388543, Final residual = 1.762894e-10, No Iterations 9
smoothSolver:  Solving for e, Initial residual = 9.5729619e-05, Final residual = 1.6711041e-10, No Iterations 6
smoothSolver:  Solving for omega, Initial residual = 0.00050907346, Final residual = 4.9067777e-11, No Iterations 6
smoothSolver:  Solving for k, Initial residual = 0.00046707245, Final residual = 7.7474672e-10, No Iterations 6
ExecutionTime = 4.203846 s  ClockTime = 5 s

Courant Number mean: 0.050674774 max: 0.50819529
deltaT = 2.275861e-06
Time = 0.000110138s

diagonal:  Solving for rho, Initial residual = 0, Final residual = 0, No Iterations 0
smoothSolver:  Solving for Ux, Initial residual = 6.7282904e-05, Final residual = 4.7551654e-11, No Iterations 6
smoothSolver:  Solving for Uy, Initial residual = 0.0019308791, Final residual = 1.644684e-10, No Iterations 9
smoothSolver:  Solving for Uz, Initial residual = 0.0019308775, Final residual = 1.6446843e-10, No Iterations 9
smoothSolver:  Solving for e, Initial residual = 9.1108309e-05, Final residual = 1.2865134e-10, No Iterations 6
smoothSolver:  Solving for omega, Initial residual = 0.00049661605, Final residual = 4.3337149e-11, No Iterations 6
smoothSolver:  Solving for k, Initial residual = 0.00044519781, Final residual = 6.2443268e-10, No Iterations 6
ExecutionTime = 4.265274 s  ClockTime = 5 s

Courant Number mean: 0.049770251 max: 0.49960038
deltaT = 2.275861e-06
Time = 0.000112414s

diagonal:  Solving for rho, Initial residual = 0, Final residual = 0, No Iterations 0
smoothSolver:  Solving for Ux, Initial residual = 6.7137827e-05, Final residual = 4.0131072e-11, No Iterations 6
smoothSolver:  Solving for Uy, Initial residual = 0.0024091686, Final residual = 1.8114757e-10, No Iterations 9
smoothSolver:  Solving for Uz, Initial residual = 0.0024091657, Final residual = 1.8114755e-10, No Iterations 9
smoothSolver:  Solving for e, Initial residual = 8.7936823e-05, Final residual = 1.1139649e-10, No Iterations 6
smoothSolver:  Solving for omega, Initial residual = 0.00048236465, Final residual = 4.3232448e-11, No Iterations 6
smoothSolver:  Solving for k, Initial residual = 0.00043160873, Final residual = 5.5691658e-10, No Iterations 6
ExecutionTime = 4.324768 s  ClockTime = 5 s

Courant Number mean: 0.049770621 max: 0.50067702
deltaT = 2.2700404e-06
Time = 0.000114684s

diagonal:  Solving for rho, Initial residual = 0, Final residual = 0, No Iterations 0
smoothSolver:  Solving for Ux, Initial residual = 6.6887197e-05, Final residual = 3.5646952e-11, No Iterations 6
smoothSolver:  Solving for Uy, Initial residual = 0.0032261561, Final residual = 2.1429562e-10, No Iterations 9
smoothSolver:  Solving for Uz, Initial residual = 0.0032261516, Final residual = 2.1429544e-10, No Iterations 9
smoothSolver:  Solving for e, Initial residual = 8.5267601e-05, Final residual = 1.0008093e-10, No Iterations 6
smoothSolver:  Solving for omega, Initial residual = 0.00047180315, Final residual = 4.2423666e-11, No Iterations 6
smoothSolver:  Solving for k, Initial residual = 0.00041663178, Final residual = 5.0009857e-10, No Iterations 6
ExecutionTime = 4.390043 s  ClockTime = 5 s

Courant Number mean: 0.049643726 max: 0.4958115
deltaT = 2.2876376e-06
Time = 0.000116972s

diagonal:  Solving for rho, Initial residual = 0, Final residual = 0, No Iterations 0
smoothSolver:  Solving for Ux, Initial residual = 6.7193088e-05, Final residual = 3.2713977e-11, No Iterations 6
smoothSolver:  Solving for Uy, Initial residual = 0.0049552895, Final residual = 3.1563576e-10, No Iterations 9
smoothSolver:  Solving for Uz, Initial residual = 0.0049552795, Final residual = 3.1563579e-10, No Iterations 9
smoothSolver:  Solving for e, Initial residual = 8.3734812e-05, Final residual = 9.3712363e-11, No Iterations 6
smoothSolver:  Solving for omega, Initial residual = 0.00046696017, Final residual = 4.3701565e-11, No Iterations 6
smoothSolver:  Solving for k, Initial residual = 0.00041013556, Final residual = 4.8357031e-10, No Iterations 6
ExecutionTime = 4.450241 s  ClockTime = 5 s

Courant Number mean: 0.050028936 max: 0.50543705
deltaT = 2.2583839e-06
Time = 0.00011923s

diagonal:  Solving for rho, Initial residual = 0, Final residual = 0, No Iterations 0
smoothSolver:  Solving for Ux, Initial residual = 6.6319597e-05, Final residual = 2.7644123e-11, No Iterations 6
smoothSolver:  Solving for Uy, Initial residual = 0.010377091, Final residual = 5.6953567e-10, No Iterations 9
smoothSolver:  Solving for Uz, Initial residual = 0.010377074, Final residual = 5.6953557e-10, No Iterations 9
smoothSolver:  Solving for e, Initial residual = 8.0753065e-05, Final residual = 7.8935515e-11, No Iterations 6
smoothSolver:  Solving for omega, Initial residual = 0.00045172762, Final residual = 3.8826806e-11, No Iterations 6
smoothSolver:  Solving for k, Initial residual = 0.00039394641, Final residual = 4.1046469e-10, No Iterations 6
ExecutionTime = 4.514855 s  ClockTime = 5 s

Courant Number mean: 0.049389546 max: 0.49932634
deltaT = 2.2583839e-06
Time = 0.000121489s

diagonal:  Solving for rho, Initial residual = 0, Final residual = 0, No Iterations 0
smoothSolver:  Solving for Ux, Initial residual = 6.6146741e-05, Final residual = 9.9699642e-10, No Iterations 3
smoothSolver:  Solving for Uy, Initial residual = 0.0089126864, Final residual = 4.4617946e-10, No Iterations 9
smoothSolver:  Solving for Uz, Initial residual = 0.0089126721, Final residual = 4.4617903e-10, No Iterations 9
smoothSolver:  Solving for e, Initial residual = 7.8813108e-05, Final residual = 6.8648709e-11, No Iterations 6
smoothSolver:  Solving for omega, Initial residual = 0.00044362376, Final residual = 3.7429721e-11, No Iterations 6
smoothSolver:  Solving for k, Initial residual = 0.0003819039, Final residual = 3.7469357e-10, No Iterations 6
ExecutionTime = 4.577124 s  ClockTime = 5 s

Courant Number mean: 0.049389915 max: 0.50195002
deltaT = 2.2468321e-06
Time = 0.000123735s

diagonal:  Solving for rho, Initial residual = 0, Final residual = 0, No Iterations 0
smoothSolver:  Solving for Ux, Initial residual = 6.5432726e-05, Final residual = 8.8763319e-10, No Iterations 3
smoothSolver:  Solving for Uy, Initial residual = 0.0046212077, Final residual = 1.9924428e-10, No Iterations 9
smoothSolver:  Solving for Uz, Initial residual = 0.0046211993, Final residual = 1.9924409e-10, No Iterations 9
smoothSolver:  Solving for e, Initial residual = 7.6950848e-05, Final residual = 5.911979e-11, No Iterations 6
smoothSolver:  Solving for omega, Initial residual = 0.00043683613, Final residual = 3.4660767e-11, No Iterations 6
smoothSolver:  Solving for k, Initial residual = 0.00037149005, Final residual = 3.2676727e-10, No Iterations 6
ExecutionTime = 4.643184 s  ClockTime = 5 s

Courant Number mean: 0.04913762 max: 0.50104505
deltaT = 2.2410857e-06
Time = 0.000125977s

diagonal:  Solving for rho, Initial residual = 0, Final residual = 0, No Iterations 0
smoothSolver:  Solving for Ux, Initial residual = 6.5286492e-05, Final residual = 8.0575041e-10, No Iterations 3
smoothSolver:  Solving for Uy, Initial residual = 0.0031711081, Final residual = 1.1906502e-10, No Iterations 9
smoothSolver:  Solving for Uz, Initial residual = 0.0031711014, Final residual = 1.19065e-10, No Iterations 9
smoothSolver:  Solving for e, Initial residual = 7.5156922e-05, Final residual = 5.2892418e-11, No Iterations 6
smoothSolver:  Solving for omega, Initial residual = 0.00042636069, Final residual = 3.2999553e-11, No Iterations 6
smoothSolver:  Solving for k, Initial residual = 0.00036368055, Final residual = 2.863482e-10, No Iterations 6
ExecutionTime = 4.711783 s  ClockTime = 5 s

Courant Number mean: 0.049012279 max: 0.50165021
deltaT = 2.2296516e-06
Time = 0.000128206s

diagonal:  Solving for rho, Initial residual = 0, Final residual = 0, No Iterations 0
smoothSolver:  Solving for Ux, Initial residual = 6.5154984e-05, Final residual = 7.4965505e-10, No Iterations 3
smoothSolver:  Solving for Uy, Initial residual = 0.0024529026, Final residual = 8.168054e-11, No Iterations 9
smoothSolver:  Solving for Uz, Initial residual = 0.0024528979, Final residual = 8.1680514e-11, No Iterations 9
smoothSolver:  Solving for e, Initial residual = 7.3396127e-05, Final residual = 4.9034369e-11, No Iterations 6
smoothSolver:  Solving for omega, Initial residual = 0.00041909102, Final residual = 3.1221342e-11, No Iterations 6
smoothSolver:  Solving for k, Initial residual = 0.00035388409, Final residual = 2.5360677e-10, No Iterations 6
ExecutionTime = 4.772176 s  ClockTime = 5 s

Courant Number mean: 0.048762545 max: 0.50495745
deltaT = 2.2070729e-06
Time = 0.000130413s

diagonal:  Solving for rho, Initial residual = 0, Final residual = 0, No Iterations 0
smoothSolver:  Solving for Ux, Initial residual = 6.4377482e-05, Final residual = 6.5292413e-10, No Iterations 3
smoothSolver:  Solving for Uy, Initial residual = 0.0020114355, Final residual = 5.9927644e-11, No Iterations 9
smoothSolver:  Solving for Uz, Initial residual = 0.0020114342, Final residual = 5.9927671e-11, No Iterations 9
smoothSolver:  Solving for e, Initial residual = 7.1614271e-05, Final residual = 4.3028889e-11, No Iterations 6
smoothSolver:  Solving for omega, Initial residual = 0.00041200754, Final residual = 2.8360198e-11, No Iterations 6
smoothSolver:  Solving for k, Initial residual = 0.0003433363, Final residual = 2.193879e-10, No Iterations 6
ExecutionTime = 4.833734 s  ClockTime = 5 s

Courant Number mean: 0.048269069 max: 0.4984406
deltaT = 2.2126888e-06
Time = 0.000132626s

diagonal:  Solving for rho, Initial residual = 0, Final residual = 0, No Iterations 0
smoothSolver:  Solving for Ux, Initial residual = 6.4239646e-05, Final residual = 6.2090392e-10, No Iterations 3
smoothSolver:  Solving for Uy, Initial residual = 0.0017450936, Final residual = 9.1537468e-10, No Iterations 6
smoothSolver:  Solving for Uz, Initial residual = 0.0017450928, Final residual = 9.1537578e-10, No Iterations 6
smoothSolver:  Solving for e, Initial residual = 7.0827296e-05, Final residual = 4.0036742e-11, No Iterations 6
smoothSolver:  Solving for omega, Initial residual = 0.00041237023, Final residual = 2.8677724e-11, No Iterations 6
smoothSolver:  Solving for k, Initial residual = 0.00033741944, Final residual = 2.0208147e-10, No Iterations 6
ExecutionTime = 4.903918 s  ClockTime = 5 s

Courant Number mean: 0.048392209 max: 0.50167981
deltaT = 2.2014569e-06
Time = 0.000134827s

diagonal:  Solving for rho, Initial residual = 0, Final residual = 0, No Iterations 0
smoothSolver:  Solving for Ux, Initial residual = 6.3971702e-05, Final residual = 5.5719586e-10, No Iterations 3
smoothSolver:  Solving for Uy, Initial residual = 0.0015418592, Final residual = 6.9149925e-10, No Iterations 6
smoothSolver:  Solving for Uz, Initial residual = 0.0015418579, Final residual = 6.9150036e-10, No Iterations 6
smoothSolver:  Solving for e, Initial residual = 6.9455188e-05, Final residual = 3.3059312e-11, No Iterations 6
smoothSolver:  Solving for omega, Initial residual = 0.00040362405, Final residual = 2.691217e-11, No Iterations 6
smoothSolver:  Solving for k, Initial residual = 0.00032834775, Final residual = 1.7598631e-10, No Iterations 6
ExecutionTime = 4.974113 s  ClockTime = 5 s

Courant Number mean: 0.048146868 max: 0.49898441
deltaT = 2.2014569e-06
Time = 0.000137029s

diagonal:  Solving for rho, Initial residual = 0, Final residual = 0, No Iterations 0
smoothSolver:  Solving for Ux, Initial residual = 6.3715172e-05, Final residual = 5.3625865e-10, No Iterations 3
smoothSolver:  Solving for Uy, Initial residual = 0.0014029932, Final residual = 5.4524373e-10, No Iterations 6
smoothSolver:  Solving for Uz, Initial residual = 0.0014029921, Final residual = 5.4524428e-10, No Iterations 6
smoothSolver:  Solving for e, Initial residual = 6.8259981e-05, Final residual = 2.8541597e-11, No Iterations 6
smoothSolver:  Solving for omega, Initial residual = 0.00040468588, Final residual = 2.6418501e-11, No Iterations 6
smoothSolver:  Solving for k, Initial residual = 0.00032468435, Final residual = 1.669803e-10, No Iterations 6
ExecutionTime = 5.033476 s  ClockTime = 5 s

Courant Number mean: 0.048147137 max: 0.50231004
deltaT = 2.190282e-06
Time = 0.000139219s

diagonal:  Solving for rho, Initial residual = 0, Final residual = 0, No Iterations 0
smoothSolver:  Solving for Ux, Initial residual = 6.3131098e-05, Final residual = 5.0385014e-10, No Iterations 3
smoothSolver:  Solving for Uy, Initial residual = 0.0012878764, Final residual = 4.3747269e-10, No Iterations 6
smoothSolver:  Solving for Uz, Initial residual = 0.0012878759, Final residual = 4.3747313e-10, No Iterations 6
smoothSolver:  Solving for e, Initial residual = 6.7030964e-05, Final residual = 2.4526855e-11, No Iterations 6
smoothSolver:  Solving for omega, Initial residual = 0.00040098529, Final residual = 2.5342255e-11, No Iterations 6
smoothSolver:  Solving for k, Initial residual = 0.00032100239, Final residual = 1.5696606e-10, No Iterations 6
ExecutionTime = 5.092575 s  ClockTime = 5 s

Courant Number mean: 0.047903 max: 0.50219938
deltaT = 2.1791919e-06
Time = 0.000141398s

diagonal:  Solving for rho, Initial residual = 0, Final residual = 0, No Iterations 0
smoothSolver:  Solving for Ux, Initial residual = 6.25346e-05, Final residual = 4.7139798e-10, No Iterations 3
smoothSolver:  Solving for Uy, Initial residual = 0.0011970589, Final residual = 3.7281067e-10, No Iterations 6
smoothSolver:  Solving for Uz, Initial residual = 0.0011970582, Final residual = 3.72811e-10, No Iterations 6
smoothSolver:  Solving for e, Initial residual = 6.5894705e-05, Final residual = 2.2394512e-11, No Iterations 6
smoothSolver:  Solving for omega, Initial residual = 0.00039680583, Final residual = 2.4178892e-11, No Iterations 6
smoothSolver:  Solving for k, Initial residual = 0.0003141047, Final residual = 1.4717807e-10, No Iterations 6
ExecutionTime = 5.151541 s  ClockTime = 6 s

Courant Number mean: 0.047660684 max: 0.49933456
deltaT = 2.1791919e-06
Time = 0.000143578s

diagonal:  Solving for rho, Initial residual = 0, Final residual = 0, No Iterations 0
smoothSolver:  Solving for Ux, Initial residual = 6.226665e-05, Final residual = 4.5515925e-10, No Iterations 3
smoothSolver:  Solving for Uy, Initial residual = 0.0011282668, Final residual = 3.3249786e-10, No Iterations 6
smoothSolver:  Solving for Uz, Initial residual = 0.0011282658, Final residual = 3.3249803e-10, No Iterations 6
smoothSolver:  Solving for e, Initial residual = 6.5205501e-05, Final residual = 9.8747535e-10, No Iterations 3
smoothSolver:  Solving for omega, Initial residual = 0.00038943656, Final residual = 2.396443e-11, No Iterations 6
smoothSolver:  Solving for k, Initial residual = 0.00030848048, Final residual = 1.4191606e-10, No Iterations 6
ExecutionTime = 5.211472 s  ClockTime = 6 s

Courant Number mean: 0.047660912 max: 0.50191795
deltaT = 2.1681581e-06
Time = 0.000145746s

diagonal:  Solving for rho, Initial residual = 0, Final residual = 0, No Iterations 0
smoothSolver:  Solving for Ux, Initial residual = 6.1662965e-05, Final residual = 4.3261176e-10, No Iterations 3
smoothSolver:  Solving for Uy, Initial residual = 0.0010618339, Final residual = 2.7484554e-10, No Iterations 6
smoothSolver:  Solving for Uz, Initial residual = 0.0010618331, Final residual = 2.7484567e-10, No Iterations 6
smoothSolver:  Solving for e, Initial residual = 6.4049153e-05, Final residual = 9.2880553e-10, No Iterations 3
smoothSolver:  Solving for omega, Initial residual = 0.00038235868, Final residual = 2.2801643e-11, No Iterations 6
smoothSolver:  Solving for k, Initial residual = 0.00030410915, Final residual = 1.2704301e-10, No Iterations 6
ExecutionTime = 5.268921 s  ClockTime = 6 s

Courant Number mean: 0.047419801 max: 0.50008285
deltaT = 2.1626691e-06
Time = 0.000147908s

diagonal:  Solving for rho, Initial residual = 0, Final residual = 0, No Iterations 0
smoothSolver:  Solving for Ux, Initial residual = 6.116135e-05, Final residual = 4.1721555e-10, No Iterations 3
smoothSolver:  Solving for Uy, Initial residual = 0.0010121336, Final residual = 2.2822445e-10, No Iterations 6
smoothSolver:  Solving for Uz, Initial residual = 0.0010121324, Final residual = 2.2822483e-10, No Iterations 6
smoothSolver:  Solving for e, Initial residual = 6.3393526e-05, Final residual = 8.7528828e-10, No Iterations 3
smoothSolver:  Solving for omega, Initial residual = 0.0003841626, Final residual = 2.2584725e-11, No Iterations 6
smoothSolver:  Solving for k, Initial residual = 0.0003044789, Final residual = 1.163189e-10, No Iterations 6
ExecutionTime = 5.328636 s  ClockTime = 6 s

Courant Number mean: 0.047299973 max: 0.49923319
deltaT = 2.1626691e-06
Time = 0.000150071s

diagonal:  Solving for rho, Initial residual = 0, Final residual = 0, No Iterations 0
smoothSolver:  Solving for Ux, Initial residual = 6.0660816e-05, Final residual = 4.10835e-10, No Iterations 3
smoothSolver:  Solving for Uy, Initial residual = 0.00096803436, Final residual = 1.9466255e-10, No Iterations 6
smoothSolver:  Solving for Uz, Initial residual = 0.00096803343, Final residual = 1.9466291e-10, No Iterations 6
smoothSolver:  Solving for e, Initial residual = 6.2871874e-05, Final residual = 8.3735713e-10, No Iterations 3
smoothSolver:  Solving for omega, Initial residual = 0.00037973915, Final residual = 2.2294394e-11, No Iterations 6
smoothSolver:  Solving for k, Initial residual = 0.00029989872, Final residual = 1.1235864e-10, No Iterations 6
ExecutionTime = 5.391255 s  ClockTime = 6 s

Courant Number mean: 0.047300176 max: 0.4966451
deltaT = 2.1737313e-06
Time = 0.000152245s

diagonal:  Solving for rho, Initial residual = 0, Final residual = 0, No Iterations 0
smoothSolver:  Solving for Ux, Initial residual = 6.0754483e-05, Final residual = 4.0582125e-10, No Iterations 3
smoothSolver:  Solving for Uy, Initial residual = 0.00093622146, Final residual = 1.7353815e-10, No Iterations 6
smoothSolver:  Solving for Uz, Initial residual = 0.00093622057, Final residual = 1.7353854e-10, No Iterations 6
smoothSolver:  Solving for e, Initial residual = 6.2954268e-05, Final residual = 8.2472944e-10, No Iterations 3
smoothSolver:  Solving for omega, Initial residual = 0.00037382113, Final residual = 2.3296602e-11, No Iterations 6
smoothSolver:  Solving for k, Initial residual = 0.00029838656, Final residual = 1.1240998e-10, No Iterations 6
ExecutionTime = 5.451454 s  ClockTime = 6 s

Courant Number mean: 0.047542322 max: 0.49738251
deltaT = 2.1849361e-06
Time = 0.00015443s

diagonal:  Solving for rho, Initial residual = 0, Final residual = 0, No Iterations 0
smoothSolver:  Solving for Ux, Initial residual = 6.0799689e-05, Final residual = 3.9596852e-10, No Iterations 3
smoothSolver:  Solving for Uy, Initial residual = 0.00090786344, Final residual = 1.5657272e-10, No Iterations 6
smoothSolver:  Solving for Uz, Initial residual = 0.00090786349, Final residual = 1.5657289e-10, No Iterations 6
smoothSolver:  Solving for e, Initial residual = 6.2855918e-05, Final residual = 8.0737621e-10, No Iterations 3
smoothSolver:  Solving for omega, Initial residual = 0.00037283478, Final residual = 2.3365545e-11, No Iterations 6
smoothSolver:  Solving for k, Initial residual = 0.0002960366, Final residual = 1.1309146e-10, No Iterations 6
ExecutionTime = 5.514919 s  ClockTime = 6 s

Courant Number mean: 0.047787595 max: 0.50052658
deltaT = 2.1793048e-06
Time = 0.000156609s

diagonal:  Solving for rho, Initial residual = 0, Final residual = 0, No Iterations 0
smoothSolver:  Solving for Ux, Initial residual = 6.0136847e-05, Final residual = 3.7661942e-10, No Iterations 3
smoothSolver:  Solving for Uy, Initial residual = 0.00087508446, Final residual = 1.3657046e-10, No Iterations 6
smoothSolver:  Solving for Uz, Initial residual = 0.0008750842, Final residual = 1.3657089e-10, No Iterations 6
smoothSolver:  Solving for e, Initial residual = 6.2188025e-05, Final residual = 7.6943271e-10, No Iterations 3
smoothSolver:  Solving for omega, Initial residual = 0.00037561751, Final residual = 2.2532459e-11, No Iterations 6
smoothSolver:  Solving for k, Initial residual = 0.00029618873, Final residual = 1.1109081e-10, No Iterations 6
ExecutionTime = 5.573936 s  ClockTime = 6 s

Courant Number mean: 0.047664616 max: 0.50250433
deltaT = 2.1681002e-06
Time = 0.000158777s

diagonal:  Solving for rho, Initial residual = 0, Final residual = 0, No Iterations 0
smoothSolver:  Solving for Ux, Initial residual = 5.9532527e-05, Final residual = 3.5782156e-10, No Iterations 3
smoothSolver:  Solving for Uy, Initial residual = 0.00084429377, Final residual = 1.1976541e-10, No Iterations 6
smoothSolver:  Solving for Uz, Initial residual = 0.00084429431, Final residual = 1.1976585e-10, No Iterations 6
smoothSolver:  Solving for e, Initial residual = 6.1582097e-05, Final residual = 7.3541249e-10, No Iterations 3
smoothSolver:  Solving for omega, Initial residual = 0.00037096651, Final residual = 2.0949428e-11, No Iterations 6
smoothSolver:  Solving for k, Initial residual = 0.00029355768, Final residual = 1.1250982e-10, No Iterations 6
ExecutionTime = 5.632877 s  ClockTime = 6 s

Courant Number mean: 0.047419746 max: 0.50274773
deltaT = 2.1514651e-06
Time = 0.000160929s

diagonal:  Solving for rho, Initial residual = 0, Final residual = 0, No Iterations 0
smoothSolver:  Solving for Ux, Initial residual = 5.8838817e-05, Final residual = 3.3912884e-10, No Iterations 3
smoothSolver:  Solving for Uy, Initial residual = 0.00081810962, Final residual = 1.0376626e-10, No Iterations 6
smoothSolver:  Solving for Uz, Initial residual = 0.0008181106, Final residual = 1.0376665e-10, No Iterations 6
smoothSolver:  Solving for e, Initial residual = 6.0645769e-05, Final residual = 6.9549219e-10, No Iterations 3
smoothSolver:  Solving for omega, Initial residual = 0.00036721685, Final residual = 1.9227499e-11, No Iterations 6
smoothSolver:  Solving for k, Initial residual = 0.00028798778, Final residual = 1.1350334e-10, No Iterations 6
ExecutionTime = 5.692465 s  ClockTime = 6 s

Courant Number mean: 0.047056093 max: 0.5014829
deltaT = 2.1404883e-06
Time = 0.000163069s

diagonal:  Solving for rho, Initial residual = 0, Final residual = 0, No Iterations 0
smoothSolver:  Solving for Ux, Initial residual = 5.8312673e-05, Final residual = 3.2942221e-10, No Iterations 3
smoothSolver:  Solving for Uy, Initial residual = 0.00079146753, Final residual = 9.0738821e-11, No Iterations 6
smoothSolver:  Solving for Uz, Initial residual = 0.0007914685, Final residual = 9.0739056e-11, No Iterations 6
smoothSolver:  Solving for e, Initial residual = 5.9868967e-05, Final residual = 6.6433391e-10, No Iterations 3
smoothSolver:  Solving for omega, Initial residual = 0.00036705246, Final residual = 1.7904111e-11, No Iterations 6
smoothSolver:  Solving for k, Initial residual = 0.00028590068, Final residual = 1.1572559e-10, No Iterations 6
ExecutionTime = 5.753042 s  ClockTime = 6 s

Courant Number mean: 0.046816191 max: 0.50108513
deltaT = 2.1350278e-06
Time = 0.000165204s

diagonal:  Solving for rho, Initial residual = 0, Final residual = 0, No Iterations 0
smoothSolver:  Solving for Ux, Initial residual = 5.7770155e-05, Final residual = 3.2536473e-10, No Iterations 3
smoothSolver:  Solving for Uy, Initial residual = 0.00076882172, Final residual = 7.9152431e-11, No Iterations 6
smoothSolver:  Solving for Uz, Initial residual = 0.00076882324, Final residual = 7.9152513e-11, No Iterations 6
smoothSolver:  Solving for e, Initial residual = 5.9450675e-05, Final residual = 6.4146939e-10, No Iterations 3
smoothSolver:  Solving for omega, Initial residual = 0.00036356098, Final residual = 1.7101683e-11, No Iterations 6
smoothSolver:  Solving for k, Initial residual = 0.00028079332, Final residual = 1.1570955e-10, No Iterations 6
ExecutionTime = 5.813137 s  ClockTime = 6 s

Courant Number mean: 0.046696948 max: 0.50075475
deltaT = 2.1295813e-06
Time = 0.000167334s

diagonal:  Solving for rho, Initial residual = 0, Final residual = 0, No Iterations 0
[...]
smoothSolver:  Solving for Uy, Initial residual = 0.00025155347, Final residual = 1.1367547e-10, No Iterations 3
smoothSolver:  Solving for Uz, Initial residual = 0.00025151957, Final residual = 1.1312472e-10, No Iterations 3
smoothSolver:  Solving for e, Initial residual = 7.2872704e-05, Final residual = 6.5681019e-11, No Iterations 3
smoothSolver:  Solving for omega, Initial residual = 0.00023451199, Final residual = 1.8922968e-12, No Iterations 6
smoothSolver:  Solving for k, Initial residual = 0.00015476988, Final residual = 3.1400256e-12, No Iterations 6
ExecutionTime = 30.459935 s  ClockTime = 31 s

Courant Number mean: 0.053452243 max: 0.50084315
deltaT = 2.4103847e-06
Time = 0.00107441s

diagonal:  Solving for rho, Initial residual = 0, Final residual = 0, No Iterations 0
smoothSolver:  Solving for Ux, Initial residual = 4.0889344e-05, Final residual = 2.6142483e-11, No Iterations 3
smoothSolver:  Solving for Uy, Initial residual = 0.00025089823, Final residual = 1.1273484e-10, No Iterations 3
smoothSolver:  Solving for Uz, Initial residual = 0.00025086738, Final residual = 1.1253506e-10, No Iterations 3
smoothSolver:  Solving for e, Initial residual = 7.2798269e-05, Final residual = 6.5054005e-11, No Iterations 3
smoothSolver:  Solving for omega, Initial residual = 0.00023297733, Final residual = 1.6398372e-12, No Iterations 6
smoothSolver:  Solving for k, Initial residual = 0.00015371147, Final residual = 3.3266084e-12, No Iterations 6
ExecutionTime = 30.52304 s  ClockTime = 31 s

Courant Number mean: 0.05331351 max: 0.49915332
deltaT = 2.4103847e-06
Time = 0.00107682s

diagonal:  Solving for rho, Initial residual = 0, Final residual = 0, No Iterations 0
smoothSolver:  Solving for Ux, Initial residual = 4.0860132e-05, Final residual = 2.6517349e-11, No Iterations 3
smoothSolver:  Solving for Uy, Initial residual = 0.00025088135, Final residual = 1.1264014e-10, No Iterations 3
smoothSolver:  Solving for Uz, Initial residual = 0.0002508617, Final residual = 1.1263023e-10, No Iterations 3
smoothSolver:  Solving for e, Initial residual = 7.2853432e-05, Final residual = 6.508872e-11, No Iterations 3
smoothSolver:  Solving for omega, Initial residual = 0.00023208149, Final residual = 2.1984673e-12, No Iterations 6
smoothSolver:  Solving for k, Initial residual = 0.00015431539, Final residual = 2.9422578e-12, No Iterations 6
ExecutionTime = 30.586942 s  ClockTime = 31 s

Courant Number mean: 0.053313619 max: 0.49830729
deltaT = 2.4166946e-06
Time = 0.00107924s

diagonal:  Solving for rho, Initial residual = 0, Final residual = 0, No Iterations 0
smoothSolver:  Solving for Ux, Initial residual = 4.1025071e-05, Final residual = 2.7060117e-11, No Iterations 3
smoothSolver:  Solving for Uy, Initial residual = 0.00025136685, Final residual = 1.1499657e-10, No Iterations 3
smoothSolver:  Solving for Uz, Initial residual = 0.00025134596, Final residual = 1.1393015e-10, No Iterations 3
smoothSolver:  Solving for e, Initial residual = 7.3137426e-05, Final residual = 6.5689986e-11, No Iterations 3
smoothSolver:  Solving for omega, Initial residual = 0.0002324971, Final residual = 2.0785521e-12, No Iterations 6
smoothSolver:  Solving for k, Initial residual = 0.00015420755, Final residual = 2.9686969e-12, No Iterations 6
ExecutionTime = 30.647816 s  ClockTime = 31 s

Courant Number mean: 0.053453292 max: 0.50083215
deltaT = 2.4103681e-06
Time = 0.00108165s

diagonal:  Solving for rho, Initial residual = 0, Final residual = 0, No Iterations 0
smoothSolver:  Solving for Ux, Initial residual = 4.09587e-05, Final residual = 2.6703167e-11, No Iterations 3
smoothSolver:  Solving for Uy, Initial residual = 0.00025112083, Final residual = 1.1303511e-10, No Iterations 3
smoothSolver:  Solving for Uz, Initial residual = 0.00025110222, Final residual = 1.1275175e-10, No Iterations 3
smoothSolver:  Solving for e, Initial residual = 7.3059867e-05, Final residual = 6.4946119e-11, No Iterations 3
smoothSolver:  Solving for omega, Initial residual = 0.00023240726, Final residual = 1.7978663e-12, No Iterations 6
smoothSolver:  Solving for k, Initial residual = 0.00015393147, Final residual = 3.1554205e-12, No Iterations 6
ExecutionTime = 30.710519 s  ClockTime = 31 s

Courant Number mean: 0.053313474 max: 0.4986729
deltaT = 2.4167112e-06
Time = 0.00108407s

diagonal:  Solving for rho, Initial residual = 0, Final residual = 0, No Iterations 0
smoothSolver:  Solving for Ux, Initial residual = 4.1110306e-05, Final residual = 2.7181418e-11, No Iterations 3
smoothSolver:  Solving for Uy, Initial residual = 0.00025207996, Final residual = 1.1440564e-10, No Iterations 3
smoothSolver:  Solving for Uz, Initial residual = 0.00025207381, Final residual = 1.1423102e-10, No Iterations 3
smoothSolver:  Solving for e, Initial residual = 7.3436605e-05, Final residual = 6.5602456e-11, No Iterations 3
smoothSolver:  Solving for omega, Initial residual = 0.00023296434, Final residual = 1.4192713e-12, No Iterations 6
smoothSolver:  Solving for k, Initial residual = 0.00015469469, Final residual = 3.1283662e-12, No Iterations 6
ExecutionTime = 30.773871 s  ClockTime = 31 s

Courant Number mean: 0.053453879 max: 0.49907454
deltaT = 2.4167112e-06
Time = 0.00108648s

diagonal:  Solving for rho, Initial residual = 0, Final residual = 0, No Iterations 0
smoothSolver:  Solving for Ux, Initial residual = 4.1160695e-05, Final residual = 2.7464963e-11, No Iterations 3
smoothSolver:  Solving for Uy, Initial residual = 0.00025225652, Final residual = 1.1501127e-10, No Iterations 3
smoothSolver:  Solving for Uz, Initial residual = 0.00025223325, Final residual = 1.144139e-10, No Iterations 3
smoothSolver:  Solving for e, Initial residual = 7.3481393e-05, Final residual = 6.5538941e-11, No Iterations 3
smoothSolver:  Solving for omega, Initial residual = 0.00023201929, Final residual = 1.6848209e-12, No Iterations 6
smoothSolver:  Solving for k, Initial residual = 0.00015291458, Final residual = 2.777731e-12, No Iterations 6
ExecutionTime = 30.835476 s  ClockTime = 31 s

Courant Number mean: 0.053453996 max: 0.50005665
deltaT = 2.4103347e-06
Time = 0.00108889s

diagonal:  Solving for rho, Initial residual = 0, Final residual = 0, No Iterations 0
smoothSolver:  Solving for Ux, Initial residual = 4.1002298e-05, Final residual = 2.746763e-11, No Iterations 3
smoothSolver:  Solving for Uy, Initial residual = 0.00025180853, Final residual = 1.1442839e-10, No Iterations 3
smoothSolver:  Solving for Uz, Initial residual = 0.00025177587, Final residual = 1.1415704e-10, No Iterations 3
smoothSolver:  Solving for e, Initial residual = 7.3419841e-05, Final residual = 6.471418e-11, No Iterations 3
smoothSolver:  Solving for omega, Initial residual = 0.00023101835, Final residual = 1.9120109e-12, No Iterations 6
smoothSolver:  Solving for k, Initial residual = 0.00015329965, Final residual = 2.815711e-12, No Iterations 6
ExecutionTime = 30.900715 s  ClockTime = 31 s

Courant Number mean: 0.053313066 max: 0.50034539
deltaT = 2.4039749e-06
Time = 0.0010913s

diagonal:  Solving for rho, Initial residual = 0, Final residual = 0, No Iterations 0
smoothSolver:  Solving for Ux, Initial residual = 4.0999629e-05, Final residual = 2.7544175e-11, No Iterations 3
smoothSolver:  Solving for Uy, Initial residual = 0.00025146061, Final residual = 1.1335689e-10, No Iterations 3
smoothSolver:  Solving for Uz, Initial residual = 0.0002514352, Final residual = 1.1301295e-10, No Iterations 3
smoothSolver:  Solving for e, Initial residual = 7.3287408e-05, Final residual = 6.4121512e-11, No Iterations 3
smoothSolver:  Solving for omega, Initial residual = 0.00022912666, Final residual = 1.3568194e-12, No Iterations 6
smoothSolver:  Solving for k, Initial residual = 0.0001527506, Final residual = 2.8535494e-12, No Iterations 6
ExecutionTime = 30.963588 s  ClockTime = 31 s

Courant Number mean: 0.053172506 max: 0.49844419
deltaT = 2.4103515e-06
Time = 0.00109371s

diagonal:  Solving for rho, Initial residual = 0, Final residual = 0, No Iterations 0
smoothSolver:  Solving for Ux, Initial residual = 4.1208673e-05, Final residual = 2.8502791e-11, No Iterations 3
smoothSolver:  Solving for Uy, Initial residual = 0.00025276101, Final residual = 1.1562735e-10, No Iterations 3
smoothSolver:  Solving for Uz, Initial residual = 0.0002527313, Final residual = 1.1523008e-10, No Iterations 3
smoothSolver:  Solving for e, Initial residual = 7.3597529e-05, Final residual = 6.4660865e-11, No Iterations 3
smoothSolver:  Solving for omega, Initial residual = 0.00022822538, Final residual = 1.7526128e-12, No Iterations 6
smoothSolver:  Solving for k, Initial residual = 0.00015255999, Final residual = 3.0991714e-12, No Iterations 6
ExecutionTime = 31.028955 s  ClockTime = 31 s

Courant Number mean: 0.053313662 max: 0.50016091
deltaT = 2.403958e-06
Time = 0.00109611s

diagonal:  Solving for rho, Initial residual = 0, Final residual = 0, No Iterations 0
smoothSolver:  Solving for Ux, Initial residual = 4.1069603e-05, Final residual = 2.8148828e-11, No Iterations 3
smoothSolver:  Solving for Uy, Initial residual = 0.00025216931, Final residual = 1.1520202e-10, No Iterations 3
smoothSolver:  Solving for Uz, Initial residual = 0.00025213919, Final residual = 1.1489246e-10, No Iterations 3
smoothSolver:  Solving for e, Initial residual = 7.3481155e-05, Final residual = 6.4140595e-11, No Iterations 3
smoothSolver:  Solving for omega, Initial residual = 0.00022621696, Final residual = 1.6048152e-12, No Iterations 6
smoothSolver:  Solving for k, Initial residual = 0.00015164905, Final residual = 2.5966581e-12, No Iterations 6
ExecutionTime = 31.090276 s  ClockTime = 31 s

Courant Number mean: 0.05317235 max: 0.49817922
deltaT = 2.4103686e-06
Time = 0.00109852s

diagonal:  Solving for rho, Initial residual = 0, Final residual = 0, No Iterations 0
smoothSolver:  Solving for Ux, Initial residual = 4.1181063e-05, Final residual = 2.8603604e-11, No Iterations 3
smoothSolver:  Solving for Uy, Initial residual = 0.00025337506, Final residual = 1.1730307e-10, No Iterations 3
smoothSolver:  Solving for Uz, Initial residual = 0.00025336313, Final residual = 1.1746615e-10, No Iterations 3
smoothSolver:  Solving for e, Initial residual = 7.3754971e-05, Final residual = 6.4953356e-11, No Iterations 3
smoothSolver:  Solving for omega, Initial residual = 0.00022612371, Final residual = 1.3918228e-12, No Iterations 6
smoothSolver:  Solving for k, Initial residual = 0.00015202458, Final residual = 2.6109326e-12, No Iterations 6
ExecutionTime = 31.152319 s  ClockTime = 32 s

Courant Number mean: 0.053314249 max: 0.49955536
deltaT = 2.4103686e-06
Time = 0.00110093s

diagonal:  Solving for rho, Initial residual = 0, Final residual = 0, No Iterations 0
smoothSolver:  Solving for Ux, Initial residual = 4.1237133e-05, Final residual = 2.8477608e-11, No Iterations 3
smoothSolver:  Solving for Uy, Initial residual = 0.0002538067, Final residual = 1.1742473e-10, No Iterations 3
smoothSolver:  Solving for Uz, Initial residual = 0.00025378061, Final residual = 1.1691711e-10, No Iterations 3
smoothSolver:  Solving for e, Initial residual = 7.3915838e-05, Final residual = 6.4956334e-11, No Iterations 3
smoothSolver:  Solving for omega, Initial residual = 0.0002250829, Final residual = 2.237449e-12, No Iterations 6
smoothSolver:  Solving for k, Initial residual = 0.00015193478, Final residual = 2.9430141e-12, No Iterations 6
ExecutionTime = 31.215773 s  ClockTime = 32 s

Courant Number mean: 0.053314356 max: 0.50125903
deltaT = 2.4039237e-06
Time = 0.00110334s

diagonal:  Solving for rho, Initial residual = 0, Final residual = 0, No Iterations 0
smoothSolver:  Solving for Ux, Initial residual = 4.1175572e-05, Final residual = 2.8123945e-11, No Iterations 3
smoothSolver:  Solving for Uy, Initial residual = 0.00025360756, Final residual = 1.1653645e-10, No Iterations 3
smoothSolver:  Solving for Uz, Initial residual = 0.00025357666, Final residual = 1.1618379e-10, No Iterations 3
smoothSolver:  Solving for e, Initial residual = 7.378998e-05, Final residual = 6.4288879e-11, No Iterations 3
smoothSolver:  Solving for omega, Initial residual = 0.00022356502, Final residual = 2.0480267e-12, No Iterations 6
smoothSolver:  Solving for k, Initial residual = 0.00015137807, Final residual = 3.05692e-12, No Iterations 6
ExecutionTime = 31.276721 s  ClockTime = 32 s

Courant Number mean: 0.05317191 max: 0.50053017
deltaT = 2.3974961e-06
Time = 0.00110573s

diagonal:  Solving for rho, Initial residual = 0, Final residual = 0, No Iterations 0
smoothSolver:  Solving for Ux, Initial residual = 4.1059096e-05, Final residual = 2.7821073e-11, No Iterations 3
smoothSolver:  Solving for Uy, Initial residual = 0.00025334519, Final residual = 1.1581258e-10, No Iterations 3
smoothSolver:  Solving for Uz, Initial residual = 0.00025331942, Final residual = 1.1573696e-10, No Iterations 3
smoothSolver:  Solving for e, Initial residual = 7.3750452e-05, Final residual = 6.3683256e-11, No Iterations 3
smoothSolver:  Solving for omega, Initial residual = 0.00022277182, Final residual = 2.1442593e-12, No Iterations 6
smoothSolver:  Solving for k, Initial residual = 0.00015061013, Final residual = 2.5456838e-12, No Iterations 6
ExecutionTime = 31.338883 s  ClockTime = 32 s

Courant Number mean: 0.053029842 max: 0.4969791
deltaT = 2.4104206e-06
Time = 0.00110814s

diagonal:  Solving for rho, Initial residual = 0, Final residual = 0, No Iterations 0
smoothSolver:  Solving for Ux, Initial residual = 4.147601e-05, Final residual = 2.8617094e-11, No Iterations 3
smoothSolver:  Solving for Uy, Initial residual = 0.00025470257, Final residual = 1.1995843e-10, No Iterations 3
smoothSolver:  Solving for Uz, Initial residual = 0.00025467329, Final residual = 1.1900166e-10, No Iterations 3
smoothSolver:  Solving for e, Initial residual = 7.4166315e-05, Final residual = 6.4937056e-11, No Iterations 3
smoothSolver:  Solving for omega, Initial residual = 0.00022480547, Final residual = 1.9538809e-12, No Iterations 6
smoothSolver:  Solving for k, Initial residual = 0.00015236989, Final residual = 2.6163481e-12, No Iterations 6
ExecutionTime = 31.401453 s  ClockTime = 32 s

Courant Number mean: 0.053315833 max: 0.49832113
deltaT = 2.416953e-06
Time = 0.00111056s

diagonal:  Solving for rho, Initial residual = 0, Final residual = 0, No Iterations 0
smoothSolver:  Solving for Ux, Initial residual = 4.1567281e-05, Final residual = 2.8728827e-11, No Iterations 3
smoothSolver:  Solving for Uy, Initial residual = 0.00025535902, Final residual = 1.2042635e-10, No Iterations 3
smoothSolver:  Solving for Uz, Initial residual = 0.00025533049, Final residual = 1.2012451e-10, No Iterations 3
smoothSolver:  Solving for e, Initial residual = 7.4543973e-05, Final residual = 6.5693729e-11, No Iterations 3
smoothSolver:  Solving for omega, Initial residual = 0.00022527777, Final residual = 2.0495728e-12, No Iterations 6
smoothSolver:  Solving for k, Initial residual = 0.00015327899, Final residual = 3.0024997e-12, No Iterations 6
ExecutionTime = 31.466749 s  ClockTime = 32 s

Courant Number mean: 0.053460452 max: 0.50011658
deltaT = 2.4104029e-06
Time = 0.00111297s

diagonal:  Solving for rho, Initial residual = 0, Final residual = 0, No Iterations 0
smoothSolver:  Solving for Ux, Initial residual = 4.1601395e-05, Final residual = 2.8444039e-11, No Iterations 3
smoothSolver:  Solving for Uy, Initial residual = 0.00025479579, Final residual = 1.1947076e-10, No Iterations 3
smoothSolver:  Solving for Uz, Initial residual = 0.0002547618, Final residual = 1.1919796e-10, No Iterations 3
smoothSolver:  Solving for e, Initial residual = 7.4468171e-05, Final residual = 6.5044353e-11, No Iterations 3
smoothSolver:  Solving for omega, Initial residual = 0.00022367399, Final residual = 1.5519826e-12, No Iterations 6
smoothSolver:  Solving for k, Initial residual = 0.00015213735, Final residual = 2.8084309e-12, No Iterations 6
ExecutionTime = 31.530405 s  ClockTime = 32 s

Courant Number mean: 0.053315694 max: 0.49901986
deltaT = 2.4104029e-06
Time = 0.00111538s

diagonal:  Solving for rho, Initial residual = 0, Final residual = 0, No Iterations 0
smoothSolver:  Solving for Ux, Initial residual = 4.1606388e-05, Final residual = 2.8672214e-11, No Iterations 3
smoothSolver:  Solving for Uy, Initial residual = 0.00025505519, Final residual = 1.2078685e-10, No Iterations 3
smoothSolver:  Solving for Uz, Initial residual = 0.00025501688, Final residual = 1.2014049e-10, No Iterations 3
smoothSolver:  Solving for e, Initial residual = 7.4585398e-05, Final residual = 6.5242132e-11, No Iterations 3
smoothSolver:  Solving for omega, Initial residual = 0.0002229188, Final residual = 1.5287031e-12, No Iterations 6
smoothSolver:  Solving for k, Initial residual = 0.00015246128, Final residual = 2.3935516e-12, No Iterations 6
ExecutionTime = 31.598872 s  ClockTime = 32 s

Courant Number mean: 0.053315805 max: 0.49933373
deltaT = 2.4104029e-06
Time = 0.00111779s

diagonal:  Solving for rho, Initial residual = 0, Final residual = 0, No Iterations 0
smoothSolver:  Solving for Ux, Initial residual = 4.1650298e-05, Final residual = 2.885938e-11, No Iterations 3
smoothSolver:  Solving for Uy, Initial residual = 0.00025459287, Final residual = 1.2163639e-10, No Iterations 3
smoothSolver:  Solving for Uz, Initial residual = 0.00025454544, Final residual = 1.2147111e-10, No Iterations 3
smoothSolver:  Solving for e, Initial residual = 7.4679768e-05, Final residual = 6.536167e-11, No Iterations 3
smoothSolver:  Solving for omega, Initial residual = 0.00022291831, Final residual = 1.9146076e-12, No Iterations 6
smoothSolver:  Solving for k, Initial residual = 0.00015362454, Final residual = 2.5432061e-12, No Iterations 6
ExecutionTime = 31.664421 s  ClockTime = 32 s

Courant Number mean: 0.053315907 max: 0.50070688
deltaT = 2.4038351e-06
Time = 0.0011202s

diagonal:  Solving for rho, Initial residual = 0, Final residual = 0, No Iterations 0
smoothSolver:  Solving for Ux, Initial residual = 4.1631994e-05, Final residual = 2.8661305e-11, No Iterations 3
smoothSolver:  Solving for Uy, Initial residual = 0.00025415903, Final residual = 1.2053712e-10, No Iterations 3
smoothSolver:  Solving for Uz, Initial residual = 0.00025410634, Final residual = 1.200752e-10, No Iterations 3
smoothSolver:  Solving for e, Initial residual = 7.4607692e-05, Final residual = 6.4831075e-11, No Iterations 3
smoothSolver:  Solving for omega, Initial residual = 0.00022182278, Final residual = 1.2942484e-12, No Iterations 6
smoothSolver:  Solving for k, Initial residual = 0.00015264088, Final residual = 2.5124724e-12, No Iterations 6
ExecutionTime = 31.741067 s  ClockTime = 32 s

Courant Number mean: 0.05317074 max: 0.49820435
deltaT = 2.4104209e-06
Time = 0.00112261s

diagonal:  Solving for rho, Initial residual = 0, Final residual = 0, No Iterations 0
smoothSolver:  Solving for Ux, Initial residual = 4.1813574e-05, Final residual = 2.9139496e-11, No Iterations 3
smoothSolver:  Solving for Uy, Initial residual = 0.00025514464, Final residual = 1.2272018e-10, No Iterations 3
smoothSolver:  Solving for Uz, Initial residual = 0.0002550952, Final residual = 1.2215463e-10, No Iterations 3
smoothSolver:  Solving for e, Initial residual = 7.5014628e-05, Final residual = 6.5596112e-11, No Iterations 3
smoothSolver:  Solving for omega, Initial residual = 0.00022136848, Final residual = 1.7459228e-12, No Iterations 6
smoothSolver:  Solving for k, Initial residual = 0.00015218146, Final residual = 2.7011278e-12, No Iterations 6
ExecutionTime = 31.82335 s  ClockTime = 32 s

Courant Number mean: 0.053316514 max: 0.49978327
Selected 229 cells for refinement out of 57277.
Refined from 57277 to 58880 cells.
    - selecting all cells
    - selected 58880 cell(s) with volume 4.5569295
Selected 2 split points out of a possible 627.
Unrefined from 58880 to 58866 cells.
    - selecting all cells
    - selected 58866 cell(s) with volume 4.5569295
Redistributing mesh with imbalance 1.3108182
